New Line.8684943 bus1=103484.1.2.3 bus2=101399.1.2.3 length=51.604272 units=m phases=3 phases=3 LineCode=UA750Z_UG_PRIMARY_3_2Cond NormAmps=485
New Line.27398360 bus1=101399.1.2.3 bus2=104117.1.2.3 length=15.141831 units=m phases=3 phases=3 LineCode=UA750Z_UG_PRIMARY_3_2Cond NormAmps=485
New Line.8684944 bus1=104117.1.2.3 bus2=104533.1.2.3 length=124.25319 units=m phases=3 phases=3 LineCode=UA750Z_UG_PRIMARY_3_2Cond NormAmps=485
New Line.8684845 bus1=104533.1.2.3 bus2=10967.1.2.3 length=171.257956 units=m phases=3 phases=3 LineCode=UA750Z_UG_PRIMARY_3_2Cond NormAmps=485
New Line.8684846 bus1=10967.1.2.3 bus2=10134.1.2.3 length=487.629854 units=m phases=3 phases=3 LineCode=UA750Z_UG_PRIMARY_3_2Cond NormAmps=485
New Line.8684847 bus1=10134.1.2.3 bus2=101784.1.2.3 length=459.285745 units=m phases=3 phases=3 LineCode=UA750Z_UG_PRIMARY_3_2Cond NormAmps=485
New Line.8684848 bus1=101784.1.2.3 bus2=10520.1.2.3 length=347.268391 units=m phases=3 phases=3 LineCode=UA750Z_UG_PRIMARY_3_2Cond NormAmps=485
New Line.8684849 bus1=10520.1.2.3 bus2=104638.1.2.3 length=169.929654 units=m phases=3 phases=3 LineCode=UA750Z_UG_PRIMARY_3_2Cond NormAmps=485
New Line.8683790 bus1=104638.1.2.3 bus2=102660.1.2.3 length=292.690918 units=m phases=3 phases=3 LineCode=UA750Z_UG_PRIMARY_3_2Cond NormAmps=485
New Line.8683831 bus1=102660.1.2.3 bus2=101155.1.2.3 length=288.606053 units=m phases=3 phases=3 LineCode=UA750Z_UG_PRIMARY_3_2Cond NormAmps=485
New Line.8683858 bus1=101155.1.2.3 bus2=107303.1.2.3 length=69.477637 units=m phases=3 phases=3 LineCode=UA750T_UG_PRIMARY_3_2Cond NormAmps=485
Edit Line.8683837 bus1=107303.3.0 bus2=102088.3.0 length=0.543725 units=m phases=1 phases=1 LineCode=UA750T_UG_PRIMARY_1_1Cond NormAmps=485
New Line.5406008 bus1=102088.3.0 bus2=105065.3.0 length=0.304897 units=m phases=1 phases=1 LineCode=BUSWORK_1_1Cond NormAmps=640
New Line.5406002 bus1=105065.3.0 bus2=107159.3.0 length=0.305087 units=m phases=1 phases=1 LineCode=BUSWORK_1_1Cond NormAmps=640
Edit Line.5406009 bus1=107159.3.0 bus2=101786.3.0 length=0.609347 units=m phases=1 phases=1 LineCode=BUSWORK_1_1Cond NormAmps=640
New Line.19688735 bus1=101786.3.0 bus2=107375.3.0 length=0.231528 units=m phases=1 phases=1 LineCode=UA750Z_UG_PRIMARY_1_1Cond NormAmps=485
New Line.8683835 bus1=107375.3.0 bus2=102386.3.0 length=0.306506 units=m phases=1 phases=1 LineCode=UA750Z_UG_PRIMARY_1_1Cond NormAmps=485
Edit Line.5406010 bus1=107159.3.0 bus2=106272.3.0 length=0.304769 units=m phases=1 phases=1 LineCode=BUSWORK_1_1Cond NormAmps=640
New Line.19688742 bus1=106272.3.0 bus2=105816.3.0 length=0.267704 units=m phases=1 phases=1 LineCode=UA750Z_UG_PRIMARY_1_1Cond NormAmps=485
New Line.8683836 bus1=105816.3.0 bus2=10258.3.0 length=0.291993 units=m phases=1 phases=1 LineCode=UA750Z_UG_PRIMARY_1_1Cond NormAmps=485
Edit Line.5406007 bus1=105065.3.0 bus2=102099.3.0 length=0.609538 units=m phases=1 phases=1 LineCode=BUSWORK_1_1Cond NormAmps=640
New Line.8683843 bus1=102099.3.0 bus2=103452.3.0 length=0.54156 units=m phases=1 phases=1 LineCode=UA1/0T_UG_PRIMARY_1_1Cond NormAmps=150
Edit Line.8683839 bus1=107303.1.0 bus2=102627.1.0 length=0.543715 units=m phases=1 phases=1 LineCode=UA750T_UG_PRIMARY_1_1Cond NormAmps=485
New Line.5406004 bus1=102627.1.0 bus2=10244.1.0 length=0.609538 units=m phases=1 phases=1 LineCode=BUSWORK_1_1Cond NormAmps=640
New Line.5406000 bus1=10244.1.0 bus2=106606.1.0 length=1.524099 units=m phases=1 phases=1 LineCode=BUSWORK_1_1Cond NormAmps=640
Edit Line.5406013 bus1=106606.1.0 bus2=103626.1.0 length=0.304579 units=m phases=1 phases=1 LineCode=BUSWORK_1_1Cond NormAmps=640
New Line.19688740 bus1=103626.1.0 bus2=101023.1.0 length=0.232278 units=m phases=1 phases=1 LineCode=UA750Z_UG_PRIMARY_1_1Cond NormAmps=485
New Line.8683840 bus1=101023.1.0 bus2=102386.1.0 length=0.305744 units=m phases=1 phases=1 LineCode=UA750Z_UG_PRIMARY_1_1Cond NormAmps=485
Edit Line.5406014 bus1=106606.1.0 bus2=10155.1.0 length=0.609855 units=m phases=1 phases=1 LineCode=BUSWORK_1_1Cond NormAmps=640
New Line.8683838 bus1=10155.1.0 bus2=103591.1.0 length=0.278051 units=m phases=1 phases=1 LineCode=UA750Z_UG_PRIMARY_1_1Cond NormAmps=485
New Line.19686358 bus1=103591.1.0 bus2=10258.1.0 length=0.271261 units=m phases=1 phases=1 LineCode=UA750Z_UG_PRIMARY_1_1Cond NormAmps=485
Edit Line.5406003 bus1=10244.1.0 bus2=102353.1.0 length=0.304579 units=m phases=1 phases=1 LineCode=BUSWORK_1_1Cond NormAmps=640
New Line.8683842 bus1=102353.1.0 bus2=103452.1.0 length=0.541938 units=m phases=1 phases=1 LineCode=UA1/0T_UG_PRIMARY_1_1Cond NormAmps=150
Edit Line.8683833 bus1=107303.2.0 bus2=105551.2.0 length=0.450263 units=m phases=1 phases=1 LineCode=UA750T_UG_PRIMARY_1_1Cond NormAmps=485
New Line.5406006 bus1=105551.2.0 bus2=105332.2.0 length=0.45674 units=m phases=1 phases=1 LineCode=BUSWORK_1_1Cond NormAmps=640
New Line.5406001 bus1=105332.2.0 bus2=105835.2.0 length=0.913926 units=m phases=1 phases=1 LineCode=BUSWORK_1_1Cond NormAmps=640
Edit Line.5406011 bus1=105835.2.0 bus2=105773.2.0 length=0.457376 units=m phases=1 phases=1 LineCode=BUSWORK_1_1Cond NormAmps=640
New Line.19687841 bus1=105773.2.0 bus2=106085.2.0 length=0.186011 units=m phases=1 phases=1 LineCode=UA750Z_UG_PRIMARY_1_1Cond NormAmps=485
New Line.8683834 bus1=106085.2.0 bus2=102386.2.0 length=0.257266 units=m phases=1 phases=1 LineCode=UA750Z_UG_PRIMARY_1_1Cond NormAmps=485
Edit Line.5406012 bus1=105835.2.0 bus2=10704.2.0 length=0.457058 units=m phases=1 phases=1 LineCode=BUSWORK_1_1Cond NormAmps=640
New Line.19688748 bus1=10704.2.0 bus2=103558.2.0 length=0.23133 units=m phases=1 phases=1 LineCode=UA750Z_UG_PRIMARY_1_1Cond NormAmps=485
New Line.8683832 bus1=103558.2.0 bus2=10258.2.0 length=0.231743 units=m phases=1 phases=1 LineCode=UA750Z_UG_PRIMARY_1_1Cond NormAmps=485
Edit Line.5406005 bus1=105332.2.0 bus2=106330.2.0 length=0.457504 units=m phases=1 phases=1 LineCode=BUSWORK_1_1Cond NormAmps=640
New Line.8683841 bus1=106330.2.0 bus2=103452.2.0 length=0.447786 units=m phases=1 phases=1 LineCode=UA1/0T_UG_PRIMARY_1_1Cond NormAmps=150
Edit Line.8683860 bus1=103452.1.2.3 bus2=104424.1.2.3 length=7.72517 units=m phases=3 phases=3 LineCode=UA1/0T_UG_PRIMARY_3_1Cond NormAmps=150
New Line.27810645 bus1=104424.1.2.3 bus2=102190.1.2.3 length=1.523971 units=m phases=3 phases=3 LineCode=UA1/0T_UG_PRIMARY_3_1Cond NormAmps=150
New Line.8683861 bus1=102386.1.2.3 bus2=103084.1.2.3 length=16.581354 units=m phases=3 phases=3 LineCode=UA750Z_UG_PRIMARY_3_1Cond NormAmps=485
Edit Line.8683844 bus1=103084.2.0 bus2=107064.2.0 length=0.44696 units=m phases=1 phases=1 LineCode=UA750Z_UG_PRIMARY_1_1Cond NormAmps=485
New Line.5406027 bus1=107064.2.0 bus2=104944.2.0 length=0.457376 units=m phases=1 phases=1 LineCode=BUSWORK_1_1Cond NormAmps=640
New Line.5406016 bus1=104944.2.0 bus2=102306.2.0 length=0.913862 units=m phases=1 phases=1 LineCode=BUSWORK_1_1Cond NormAmps=640
Edit Line.5406021 bus1=102306.2.0 bus2=102575.2.0 length=0.456931 units=m phases=1 phases=1 LineCode=BUSWORK_1_1Cond NormAmps=640
New Line.19688745 bus1=102575.2.0 bus2=101181.2.0 length=0.203761 units=m phases=1 phases=1 LineCode=UA750Z_UG_PRIMARY_1_1Cond NormAmps=485
New Line.8683845 bus1=101181.2.0 bus2=103362.2.0 length=0.243707 units=m phases=1 phases=1 LineCode=UA750Z_UG_PRIMARY_1_1Cond NormAmps=485
New Line.5406020 bus1=102306.2.0 bus2=107050.2.0 length=0.457058 units=m phases=1 phases=1 LineCode=BUSWORK_1_1Cond NormAmps=640
New Line.5406026 bus1=104944.2.0 bus2=10988.2.0 length=0.456613 units=m phases=1 phases=1 LineCode=BUSWORK_1_1Cond NormAmps=640
Edit Line.8683846 bus1=103084.1.0 bus2=105774.1.0 length=0.541317 units=m phases=1 phases=1 LineCode=UA750Z_UG_PRIMARY_1_1Cond NormAmps=485
New Line.5406029 bus1=105774.1.0 bus2=105513.1.0 length=0.609538 units=m phases=1 phases=1 LineCode=BUSWORK_1_1Cond NormAmps=640
New Line.5406015 bus1=105513.1.0 bus2=102843.1.0 length=1.52378 units=m phases=1 phases=1 LineCode=BUSWORK_1_1Cond NormAmps=640
Edit Line.5406019 bus1=102843.1.0 bus2=105518.1.0 length=0.609284 units=m phases=1 phases=1 LineCode=BUSWORK_1_1Cond NormAmps=640
New Line.19686361 bus1=105518.1.0 bus2=105985.1.0 length=0.251851 units=m phases=1 phases=1 LineCode=UA750Z_UG_PRIMARY_1_1Cond NormAmps=485
New Line.8683847 bus1=105985.1.0 bus2=103362.1.0 length=0.289688 units=m phases=1 phases=1 LineCode=UA750Z_UG_PRIMARY_1_1Cond NormAmps=485
New Line.5406018 bus1=102843.1.0 bus2=106796.1.0 length=0.303943 units=m phases=1 phases=1 LineCode=BUSWORK_1_1Cond NormAmps=640
New Line.5406028 bus1=105513.1.0 bus2=102049.1.0 length=0.304642 units=m phases=1 phases=1 LineCode=BUSWORK_1_1Cond NormAmps=640
Edit Line.8683849 bus1=103084.3.0 bus2=106540.3.0 length=0.541191 units=m phases=1 phases=1 LineCode=UA750Z_UG_PRIMARY_1_1Cond NormAmps=485
New Line.5406025 bus1=106540.3.0 bus2=104429.3.0 length=0.304769 units=m phases=1 phases=1 LineCode=BUSWORK_1_1Cond NormAmps=640
New Line.5406017 bus1=104429.3.0 bus2=106280.3.0 length=0.304642 units=m phases=1 phases=1 LineCode=BUSWORK_1_1Cond NormAmps=640
Edit Line.5406023 bus1=106280.3.0 bus2=104166.3.0 length=0.304959 units=m phases=1 phases=1 LineCode=BUSWORK_1_1Cond NormAmps=640
New Line.19686521 bus1=104166.3.0 bus2=102147.3.0 length=0.247744 units=m phases=1 phases=1 LineCode=UA750Z_UG_PRIMARY_1_1Cond NormAmps=485
New Line.8683848 bus1=102147.3.0 bus2=103362.3.0 length=0.293392 units=m phases=1 phases=1 LineCode=UA750Z_UG_PRIMARY_1_1Cond NormAmps=485
New Line.5406022 bus1=106280.3.0 bus2=103885.3.0 length=0.609093 units=m phases=1 phases=1 LineCode=BUSWORK_1_1Cond NormAmps=640
New Line.5406024 bus1=104429.3.0 bus2=101500.3.0 length=0.609411 units=m phases=1 phases=1 LineCode=BUSWORK_1_1Cond NormAmps=640
New Line.8683856 bus1=103362.1.2.3 bus2=106059.1.2.3 length=11.911824 units=m phases=3 phases=3 LineCode=UA750Z_UG_PRIMARY_3_1Cond NormAmps=485
Edit Line.8683851 bus1=106059.2.0 bus2=101536.2.0 length=0.455993 units=m phases=1 phases=1 LineCode=UA750Z_UG_PRIMARY_1_1Cond NormAmps=485
New Line.5406036 bus1=101536.2.0 bus2=101539.2.0 length=0.456819 units=m phases=1 phases=1 LineCode=BUSWORK_1_1Cond NormAmps=640
New Line.5406031 bus1=101539.2.0 bus2=104153.2.0 length=0.914652 units=m phases=1 phases=1 LineCode=BUSWORK_1_1Cond NormAmps=640
Edit Line.5406042 bus1=104153.2.0 bus2=106553.2.0 length=0.457007 units=m phases=1 phases=1 LineCode=BUSWORK_1_1Cond NormAmps=640
New Line.8683850 bus1=106553.2.0 bus2=106588.2.0 length=0.231503 units=m phases=1 phases=1 LineCode=UA750Z_UG_PRIMARY_1_1Cond NormAmps=485
New Line.19687843 bus1=106588.2.0 bus2=102313.2.0 length=0.218389 units=m phases=1 phases=1 LineCode=UA750Z_UG_PRIMARY_1_1Cond NormAmps=485
Edit Line.5406041 bus1=104153.2.0 bus2=102260.2.0 length=0.456951 units=m phases=1 phases=1 LineCode=BUSWORK_1_1Cond NormAmps=640
New Line.8687270 bus1=102260.2.0 bus2=105766.2.0 length=0.44798 units=m phases=1 phases=1 LineCode=UA1/0T_UG_PRIMARY_1_1Cond NormAmps=150
New Line.5406035 bus1=101539.2.0 bus2=102059.2.0 length=0.457138 units=m phases=1 phases=1 LineCode=BUSWORK_1_1Cond NormAmps=640
Edit Line.8683853 bus1=106059.1.0 bus2=102590.1.0 length=0.548584 units=m phases=1 phases=1 LineCode=UA750Z_UG_PRIMARY_1_1Cond NormAmps=485
New Line.5406034 bus1=102590.1.0 bus2=103400.1.0 length=0.609368 units=m phases=1 phases=1 LineCode=BUSWORK_1_1Cond NormAmps=640
New Line.5406030 bus1=103400.1.0 bus2=101778.1.0 length=1.524339 units=m phases=1 phases=1 LineCode=BUSWORK_1_1Cond NormAmps=640
Edit Line.5406044 bus1=101778.1.0 bus2=106038.1.0 length=0.609368 units=m phases=1 phases=1 LineCode=BUSWORK_1_1Cond NormAmps=640
New Line.8683852 bus1=106038.1.0 bus2=104097.1.0 length=0.283456 units=m phases=1 phases=1 LineCode=UA750Z_UG_PRIMARY_1_1Cond NormAmps=485
New Line.19688750 bus1=104097.1.0 bus2=102313.1.0 length=0.260681 units=m phases=1 phases=1 LineCode=UA750Z_UG_PRIMARY_1_1Cond NormAmps=485
Edit Line.5406043 bus1=101778.1.0 bus2=102801.1.0 length=0.304459 units=m phases=1 phases=1 LineCode=BUSWORK_1_1Cond NormAmps=640
New Line.8687490 bus1=102801.1.0 bus2=105766.1.0 length=0.541001 units=m phases=1 phases=1 LineCode=UA1/0T_UG_PRIMARY_1_1Cond NormAmps=150
New Line.5406033 bus1=103400.1.0 bus2=104983.1.0 length=0.304778 units=m phases=1 phases=1 LineCode=BUSWORK_1_1Cond NormAmps=640
Edit Line.8683855 bus1=106059.3.0 bus2=102054.3.0 length=0.548377 units=m phases=1 phases=1 LineCode=UA750Z_UG_PRIMARY_1_1Cond NormAmps=485
New Line.5406038 bus1=102054.3.0 bus2=105523.3.0 length=0.304909 units=m phases=1 phases=1 LineCode=BUSWORK_1_1Cond NormAmps=640
New Line.5406032 bus1=105523.3.0 bus2=105253.3.0 length=0.305097 units=m phases=1 phases=1 LineCode=BUSWORK_1_1Cond NormAmps=640
Edit Line.5406040 bus1=105253.3.0 bus2=104980.3.0 length=0.304966 units=m phases=1 phases=1 LineCode=BUSWORK_1_1Cond NormAmps=640
New Line.8683854 bus1=104980.3.0 bus2=102285.3.0 length=0.279388 units=m phases=1 phases=1 LineCode=UA750Z_UG_PRIMARY_1_1Cond NormAmps=485
New Line.19684571 bus1=102285.3.0 bus2=102313.3.0 length=0.264177 units=m phases=1 phases=1 LineCode=UA750Z_UG_PRIMARY_1_1Cond NormAmps=485
Edit Line.5406039 bus1=105253.3.0 bus2=105734.3.0 length=0.609049 units=m phases=1 phases=1 LineCode=BUSWORK_1_1Cond NormAmps=640
New Line.8687491 bus1=105734.3.0 bus2=105766.3.0 length=0.542362 units=m phases=1 phases=1 LineCode=UA1/0T_UG_PRIMARY_1_1Cond NormAmps=150
New Line.5406037 bus1=105523.3.0 bus2=101253.3.0 length=0.609049 units=m phases=1 phases=1 LineCode=BUSWORK_1_1Cond NormAmps=640
New Line.8687492 bus1=105766.1.2.3 bus2=103259.1.2.3 length=102.463305 units=m phases=3 phases=3 LineCode=UA1/0T_UG_PRIMARY_3_1Cond NormAmps=150
Edit Line.8687493 bus1=103259.1.2.3 bus2=101256.1.2.3 length=131.576873 units=m phases=3 phases=3 LineCode=UA1/0T_UG_PRIMARY_3_1Cond NormAmps=150
New Line.27810577 bus1=101256.1.2.3 bus2=101721.1.2.3 length=1.523988 units=m phases=3 phases=3 LineCode=UA1/0T_UG_PRIMARY_3_1Cond NormAmps=150
New Line.9960191 bus1=20201.1.2.3 bus2=104074.1.2.3 length=3.226606 units=m phases=3 phases=3 LineCode=UA4/0A_UG_SECONDARY_3_1Cond NormAmps=260
New Line.8683859 bus1=10258.1.2.3 bus2=107220.1.2.3 length=70.313945 units=m phases=3 phases=3 LineCode=UA750Z_UG_PRIMARY_3_1Cond NormAmps=485
New Line.8683954 bus1=107220.1.2.3 bus2=105148.1.2.3 length=276.971308 units=m phases=3 phases=3 LineCode=UA750Z_UG_PRIMARY_3_1Cond NormAmps=485
Edit Line.8683946 bus1=105148.2.0 bus2=104278.2.0 length=0.457326 units=m phases=1 phases=1 LineCode=UA750Z_UG_PRIMARY_1_1Cond NormAmps=485
New Line.5406112 bus1=104278.2.0 bus2=106695.2.0 length=0.456956 units=m phases=1 phases=1 LineCode=BUSWORK_1_1Cond NormAmps=640
Edit Line.5406111 bus1=106695.2.0 bus2=105875.2.0 length=0.456956 units=m phases=1 phases=1 LineCode=BUSWORK_1_1Cond NormAmps=640
New Line.8685464 bus1=105875.2.0 bus2=102480.2.0 length=0.434739 units=m phases=1 phases=1 LineCode=UA1/0T_UG_PRIMARY_1_1Cond NormAmps=150
New Line.5406107 bus1=106695.2.0 bus2=102753.2.0 length=0.914652 units=m phases=1 phases=1 LineCode=BUSWORK_1_1Cond NormAmps=640
Edit Line.5406117 bus1=102753.2.0 bus2=105374.2.0 length=0.457327 units=m phases=1 phases=1 LineCode=BUSWORK_1_1Cond NormAmps=640
New Line.16084022 bus1=105374.2.0 bus2=104040.2.0 length=180.482951 units=m phases=1 phases=1 LineCode=UA1/0T_UG_PRIMARY_1_1Cond NormAmps=150
Edit Line.8688672 bus1=104040.2.0 bus2=107294.2.0 length=109.114806 units=m phases=1 phases=1 LineCode=UA1/0T_UG_PRIMARY_1_1Cond NormAmps=150
New Line.27810481 bus1=107294.2.0 bus2=102762.2.0 length=1.523963 units=m phases=1 phases=1 LineCode=UA1/0T_UG_PRIMARY_1_1Cond NormAmps=150
Edit Line.27810485 bus1=102762.2.0 bus2=103337.2.0 length=1.524033 units=m phases=1 phases=1 LineCode=UA1/0T_UG_PRIMARY_1_1Cond NormAmps=150
Edit Line.8688626 bus1=103337.2.0 bus2=106535.2.0 length=135.460074 units=m phases=1 phases=1 LineCode=UA1/0T_UG_PRIMARY_1_1Cond NormAmps=150
New Line.27810417 bus1=106535.2.0 bus2=106206.2.0 length=1.52398 units=m phases=1 phases=1 LineCode=UA1/0T_UG_PRIMARY_1_1Cond NormAmps=150
Edit Line.27810413 bus1=106206.2.0 bus2=103094.2.0 length=1.524015 units=m phases=1 phases=1 LineCode=UA1/0T_UG_PRIMARY_1_1Cond NormAmps=150
Edit Line.8688747 bus1=103094.2.0 bus2=104973.2.0 length=110.441215 units=m phases=1 phases=1 LineCode=UA1/0T_UG_PRIMARY_1_1Cond NormAmps=150
New Line.27810585 bus1=104973.2.0 bus2=103272.2.0 length=1.524009 units=m phases=1 phases=1 LineCode=UA1/0T_UG_PRIMARY_1_1Cond NormAmps=150
Edit Line.27810581 bus1=103272.2.0 bus2=101529.2.0 length=1.523979 units=m phases=1 phases=1 LineCode=UA1/0T_UG_PRIMARY_1_1Cond NormAmps=150
Edit Line.8688802 bus1=101529.2.0 bus2=103590.2.0 length=51.049275 units=m phases=1 phases=1 LineCode=UA1/0T_UG_PRIMARY_1_1Cond NormAmps=150
New Line.27810593 bus1=103590.2.0 bus2=106707.2.0 length=1.523959 units=m phases=1 phases=1 LineCode=UA1/0T_UG_PRIMARY_1_1Cond NormAmps=150
Edit Line.27810589 bus1=106707.2.0 bus2=10117.2.0 length=1.524036 units=m phases=1 phases=1 LineCode=UA1/0T_UG_PRIMARY_1_1Cond NormAmps=150
Edit Line.8688793 bus1=10117.2.0 bus2=103068.2.0 length=50.637589 units=m phases=1 phases=1 LineCode=UA1/0T_UG_PRIMARY_1_1Cond NormAmps=150
New Line.27810601 bus1=103068.2.0 bus2=102227.2.0 length=1.52403 units=m phases=1 phases=1 LineCode=UA1/0T_UG_PRIMARY_1_1Cond NormAmps=150
Edit Line.27810597 bus1=102227.2.0 bus2=107031.2.0 length=1.523973 units=m phases=1 phases=1 LineCode=UA1/0T_UG_PRIMARY_1_1Cond NormAmps=150
Edit Line.8688792 bus1=107031.2.0 bus2=105482.2.0 length=72.216857 units=m phases=1 phases=1 LineCode=UA1/0T_UG_PRIMARY_1_1Cond NormAmps=150
New Line.27810629 bus1=105482.2.0 bus2=105145.2.0 length=1.523968 units=m phases=1 phases=1 LineCode=UA1/0T_UG_PRIMARY_1_1Cond NormAmps=150
Edit Line.27810633 bus1=105145.2.0 bus2=102014.2.0 length=1.523954 units=m phases=1 phases=1 LineCode=UA1/0T_UG_PRIMARY_1_1Cond NormAmps=150
Edit Line.8688791 bus1=102014.2.0 bus2=102547.2.0 length=102.09292 units=m phases=1 phases=1 LineCode=UA1/0T_UG_PRIMARY_1_1Cond NormAmps=150
New Line.27810609 bus1=102547.2.0 bus2=101693.2.0 length=1.524044 units=m phases=1 phases=1 LineCode=UA1/0T_UG_PRIMARY_1_1Cond NormAmps=150
New Line.9967673 bus1=2040.2.0 bus2=103383.2.0 length=9.296479 units=m phases=1 phases=1 LineCode=UA1/0A_UG_SECONDARY_1_1Cond NormAmps=150
New Line.9967674 bus1=103383.2.0 bus2=106814.2.0 length=0.914448 units=m phases=1 phases=1 LineCode=UA1/0A_UG_SECONDARY_1_1Cond NormAmps=150
New Line.9967667 bus1=2040.2.0 bus2=102513.2.0 length=23.610231 units=m phases=1 phases=1 LineCode=UA1/0A_UG_SECONDARY_1_1Cond NormAmps=150
New Line.9967670 bus1=2040.2.0 bus2=106997.2.0 length=47.000197 units=m phases=1 phases=1 LineCode=UA1/0A_UG_SECONDARY_1_1Cond NormAmps=150
New Line.9967666 bus1=2040.2.0 bus2=104160.2.0 length=23.072339 units=m phases=1 phases=1 LineCode=UA1/0A_UG_SECONDARY_1_1Cond NormAmps=150
New Line.9967669 bus1=2040.2.0 bus2=103028.2.0 length=63.188401 units=m phases=1 phases=1 LineCode=UA4/0B_UG_SECONDARY_1_1Cond NormAmps=260
New Line.9967665 bus1=2040.2.0 bus2=106482.2.0 length=41.913952 units=m phases=1 phases=1 LineCode=UA1/0A_UG_SECONDARY_1_1Cond NormAmps=150
New Line.9967664 bus1=2040.2.0 bus2=103569.2.0 length=35.051914 units=m phases=1 phases=1 LineCode=UA1/0A_UG_SECONDARY_1_1Cond NormAmps=150
New Line.9967668 bus1=103569.2.0 bus2=10371.2.0 length=0.914287 units=m phases=1 phases=1 LineCode=UA1/0A_UG_SECONDARY_1_1Cond NormAmps=150
New Line.9967460 bus1=2038.2.0 bus2=103535.2.0 length=36.805733 units=m phases=1 phases=1 LineCode=UA1/0A_UG_SECONDARY_1_1Cond NormAmps=150
New Line.9967461 bus1=103535.2.0 bus2=102714.2.0 length=0.914333 units=m phases=1 phases=1 LineCode=UA1/0A_UG_SECONDARY_1_1Cond NormAmps=150
New Line.9967458 bus1=2038.2.0 bus2=106981.2.0 length=57.365062 units=m phases=1 phases=1 LineCode=UA4/0B_UG_SECONDARY_1_1Cond NormAmps=260
New Line.9967539 bus1=2038.2.0 bus2=103541.2.0 length=7.528033 units=m phases=1 phases=1 LineCode=UA1/0A_UG_SECONDARY_1_1Cond NormAmps=150
New Line.9967459 bus1=2038.2.0 bus2=102201.2.0 length=40.459159 units=m phases=1 phases=1 LineCode=UA1/0A_UG_SECONDARY_1_1Cond NormAmps=150
Edit Line.29548497 bus1=102201.2.0 bus2=102197.2.0 length=3.048102 units=m phases=1 phases=1 LineCode=UA4/0B_UG_SECONDARY_1_1Cond NormAmps=260
Edit Line.29548499 bus1=102197.2.0 bus2=106684.2.0 length=1.524081 units=m phases=1 phases=1 LineCode=UA4/0B_UG_SECONDARY_1_1Cond NormAmps=260
New Line.29548493 bus1=106684.2.0 bus2=102393.2.0 length=3.047919 units=m phases=1 phases=1 LineCode=UA4/0B_UG_SECONDARY_1_1Cond NormAmps=260
New Line.29548495 bus1=102201.2.0 bus2=104063.2.0 length=3.047998 units=m phases=1 phases=1 LineCode=UA1/0A_UG_SECONDARY_1_1Cond NormAmps=150
New Line.9967462 bus1=2038.2.0 bus2=1081.2.0 length=22.524444 units=m phases=1 phases=1 LineCode=UA1/0A_UG_SECONDARY_1_1Cond NormAmps=150
New Line.9967537 bus1=2038.2.0 bus2=103563.2.0 length=22.822666 units=m phases=1 phases=1 LineCode=UA1/0A_UG_SECONDARY_1_1Cond NormAmps=150
New Line.9967538 bus1=2038.2.0 bus2=103790.2.0 length=7.908066 units=m phases=1 phases=1 LineCode=UA1/0A_UG_SECONDARY_1_1Cond NormAmps=150
Edit Line.29548087 bus1=103790.2.0 bus2=101119.2.0 length=3.048075 units=m phases=1 phases=1 LineCode=UA4/0B_UG_SECONDARY_1_1Cond NormAmps=260
Edit Line.29548089 bus1=101119.2.0 bus2=104588.2.0 length=1.524073 units=m phases=1 phases=1 LineCode=UA4/0B_UG_SECONDARY_1_1Cond NormAmps=260
New Line.29548083 bus1=104588.2.0 bus2=103459.2.0 length=3.047855 units=m phases=1 phases=1 LineCode=UA4/0B_UG_SECONDARY_1_1Cond NormAmps=260
New Line.29548085 bus1=103790.2.0 bus2=103286.2.0 length=3.047974 units=m phases=1 phases=1 LineCode=UA1/0A_UG_SECONDARY_1_1Cond NormAmps=150
New Line.9967541 bus1=2038.2.0 bus2=101289.2.0 length=41.740454 units=m phases=1 phases=1 LineCode=UA1/0A_UG_SECONDARY_1_1Cond NormAmps=150
New Line.9967540 bus1=101289.2.0 bus2=103668.2.0 length=0.914553 units=m phases=1 phases=1 LineCode=UA1/0A_UG_SECONDARY_1_1Cond NormAmps=150
New Line.9967542 bus1=101289.2.0 bus2=105044.2.0 length=47.833306 units=m phases=1 phases=1 LineCode=UA1/0A_UG_SECONDARY_1_1Cond NormAmps=150
New Line.9967480 bus1=105044.2.0 bus2=101053.2.0 length=0.914441 units=m phases=1 phases=1 LineCode=UA1/0A_UG_SECONDARY_1_1Cond NormAmps=150
New Line.9967453 bus1=2071.2.0 bus2=101707.2.0 length=21.927806 units=m phases=1 phases=1 LineCode=UA1/0A_UG_SECONDARY_1_1Cond NormAmps=150
New Line.9967451 bus1=2071.2.0 bus2=103992.2.0 length=31.101125 units=m phases=1 phases=1 LineCode=UA1/0A_UG_SECONDARY_1_1Cond NormAmps=150
New Line.9967452 bus1=103992.2.0 bus2=103747.2.0 length=0.914422 units=m phases=1 phases=1 LineCode=UA1/0A_UG_SECONDARY_1_1Cond NormAmps=150
New Line.9967454 bus1=2071.2.0 bus2=102739.2.0 length=6.705564 units=m phases=1 phases=1 LineCode=UA1/0A_UG_SECONDARY_1_1Cond NormAmps=150
Edit Line.29548418 bus1=102739.2.0 bus2=101671.2.0 length=3.047849 units=m phases=1 phases=1 LineCode=UA4/0B_UG_SECONDARY_1_1Cond NormAmps=260
Edit Line.29548420 bus1=101671.2.0 bus2=106176.2.0 length=1.524149 units=m phases=1 phases=1 LineCode=UA4/0B_UG_SECONDARY_1_1Cond NormAmps=260
New Line.29548414 bus1=106176.2.0 bus2=105840.2.0 length=3.047992 units=m phases=1 phases=1 LineCode=UA4/0B_UG_SECONDARY_1_1Cond NormAmps=260
New Line.29548416 bus1=102739.2.0 bus2=102242.2.0 length=3.048008 units=m phases=1 phases=1 LineCode=UA1/0A_UG_SECONDARY_1_1Cond NormAmps=150
New Line.9967455 bus1=2071.2.0 bus2=104328.2.0 length=6.724622 units=m phases=1 phases=1 LineCode=UA1/0A_UG_SECONDARY_1_1Cond NormAmps=150
Edit Line.29548011 bus1=104328.2.0 bus2=101654.2.0 length=3.048064 units=m phases=1 phases=1 LineCode=UA4/0B_UG_SECONDARY_1_1Cond NormAmps=260
Edit Line.29548013 bus1=101654.2.0 bus2=104572.2.0 length=1.523974 units=m phases=1 phases=1 LineCode=UA4/0B_UG_SECONDARY_1_1Cond NormAmps=260
New Line.29548007 bus1=104572.2.0 bus2=106881.2.0 length=3.047771 units=m phases=1 phases=1 LineCode=UA4/0B_UG_SECONDARY_1_1Cond NormAmps=260
New Line.29548009 bus1=104328.2.0 bus2=101510.2.0 length=3.047967 units=m phases=1 phases=1 LineCode=UA1/0A_UG_SECONDARY_1_1Cond NormAmps=150
New Line.9967456 bus1=2071.2.0 bus2=106717.2.0 length=26.099171 units=m phases=1 phases=1 LineCode=UA1/0A_UG_SECONDARY_1_1Cond NormAmps=150
New Line.9967457 bus1=2071.2.0 bus2=107239.2.0 length=24.96459 units=m phases=1 phases=1 LineCode=UA1/0A_UG_SECONDARY_1_1Cond NormAmps=150
New Line.9967448 bus1=20253.2.0 bus2=102799.2.0 length=5.646995 units=m phases=1 phases=1 LineCode=UA1/0A_UG_SECONDARY_1_1Cond NormAmps=150
New Line.9967449 bus1=20253.2.0 bus2=10962.2.0 length=6.302714 units=m phases=1 phases=1 LineCode=UA1/0A_UG_SECONDARY_1_1Cond NormAmps=150
New Line.9967398 bus1=20253.2.0 bus2=101183.2.0 length=25.764251 units=m phases=1 phases=1 LineCode=UA1/0A_UG_SECONDARY_1_1Cond NormAmps=150
Edit Line.29547651 bus1=101183.2.0 bus2=105349.2.0 length=3.047923 units=m phases=1 phases=1 LineCode=UA4/0B_UG_SECONDARY_1_1Cond NormAmps=260
Edit Line.29547653 bus1=105349.2.0 bus2=104242.2.0 length=1.523952 units=m phases=1 phases=1 LineCode=UA4/0B_UG_SECONDARY_1_1Cond NormAmps=260
New Line.29547647 bus1=104242.2.0 bus2=106372.2.0 length=3.048129 units=m phases=1 phases=1 LineCode=UA4/0B_UG_SECONDARY_1_1Cond NormAmps=260
New Line.29547649 bus1=101183.2.0 bus2=105731.2.0 length=3.048015 units=m phases=1 phases=1 LineCode=UA1/0A_UG_SECONDARY_1_1Cond NormAmps=150
New Line.9967450 bus1=20253.2.0 bus2=105702.2.0 length=24.235177 units=m phases=1 phases=1 LineCode=UA1/0A_UG_SECONDARY_1_1Cond NormAmps=150
New Line.9967396 bus1=20253.2.0 bus2=104550.2.0 length=44.473973 units=m phases=1 phases=1 LineCode=UA1/0A_UG_SECONDARY_1_1Cond NormAmps=150
New Line.9967397 bus1=104550.2.0 bus2=107410.2.0 length=0.914422 units=m phases=1 phases=1 LineCode=UA1/0A_UG_SECONDARY_1_1Cond NormAmps=150
New Line.9967399 bus1=20253.2.0 bus2=101743.2.0 length=35.579149 units=m phases=1 phases=1 LineCode=UA1/0A_UG_SECONDARY_1_1Cond NormAmps=150
New Line.9967447 bus1=20253.2.0 bus2=106743.2.0 length=41.87677 units=m phases=1 phases=1 LineCode=UA1/0A_UG_SECONDARY_1_1Cond NormAmps=150
New Line.9967389 bus1=20118.2.0 bus2=103505.2.0 length=37.394703 units=m phases=1 phases=1 LineCode=UA4/0B_UG_SECONDARY_1_1Cond NormAmps=260
New Line.9967395 bus1=20118.2.0 bus2=10322.2.0 length=5.778536 units=m phases=1 phases=1 LineCode=UA1/0A_UG_SECONDARY_1_1Cond NormAmps=150
New Line.9967394 bus1=20118.2.0 bus2=1027.2.0 length=24.582336 units=m phases=1 phases=1 LineCode=UA1/0A_UG_SECONDARY_1_1Cond NormAmps=150
New Line.9967387 bus1=20118.2.0 bus2=10927.2.0 length=52.440503 units=m phases=1 phases=1 LineCode=UA4/0B_UG_SECONDARY_1_1Cond NormAmps=260
New Line.9967393 bus1=20118.2.0 bus2=101723.2.0 length=20.992482 units=m phases=1 phases=1 LineCode=UA1/0A_UG_SECONDARY_1_1Cond NormAmps=150
Edit Line.29547858 bus1=101723.2.0 bus2=102189.2.0 length=3.047843 units=m phases=1 phases=1 LineCode=UA4/0B_UG_SECONDARY_1_1Cond NormAmps=260
Edit Line.29547860 bus1=102189.2.0 bus2=105102.2.0 length=1.524058 units=m phases=1 phases=1 LineCode=UA4/0B_UG_SECONDARY_1_1Cond NormAmps=260
New Line.29547854 bus1=105102.2.0 bus2=102924.2.0 length=3.047862 units=m phases=1 phases=1 LineCode=UA4/0B_UG_SECONDARY_1_1Cond NormAmps=260
New Line.29547856 bus1=101723.2.0 bus2=1043.2.0 length=3.048037 units=m phases=1 phases=1 LineCode=UA1/0A_UG_SECONDARY_1_1Cond NormAmps=150
New Line.10050654 bus1=20118.2.0 bus2=107276.2.0 length=20.805459 units=m phases=1 phases=1 LineCode=UA1/0A_UG_SECONDARY_1_1Cond NormAmps=150
New Line.9967391 bus1=20118.2.0 bus2=101715.2.0 length=31.554491 units=m phases=1 phases=1 LineCode=UA1/0A_UG_SECONDARY_1_1Cond NormAmps=150
New Line.9967390 bus1=101715.2.0 bus2=102244.2.0 length=0.91448 units=m phases=1 phases=1 LineCode=UA1/0A_UG_SECONDARY_1_1Cond NormAmps=150
New Line.9967392 bus1=101715.2.0 bus2=106702.2.0 length=39.143309 units=m phases=1 phases=1 LineCode=UA1/0A_UG_SECONDARY_1_1Cond NormAmps=150
New Line.9967388 bus1=106702.2.0 bus2=105954.2.0 length=0.914505 units=m phases=1 phases=1 LineCode=UA1/0A_UG_SECONDARY_1_1Cond NormAmps=150
New Line.9967182 bus1=20333.2.0 bus2=102683.2.0 length=25.768734 units=m phases=1 phases=1 LineCode=UA1/0A_UG_SECONDARY_1_1Cond NormAmps=150
New Line.9967181 bus1=20333.2.0 bus2=106644.2.0 length=24.75187 units=m phases=1 phases=1 LineCode=UA1/0A_UG_SECONDARY_1_1Cond NormAmps=150
New Line.9967322 bus1=20333.2.0 bus2=105093.2.0 length=65.881495 units=m phases=1 phases=1 LineCode=UA1/0A_UG_SECONDARY_1_1Cond NormAmps=150
New Line.9967386 bus1=105093.2.0 bus2=1024.2.0 length=0.914341 units=m phases=1 phases=1 LineCode=UA1/0A_UG_SECONDARY_1_1Cond NormAmps=150
New Line.9967145 bus1=20333.2.0 bus2=1079.2.0 length=10.769132 units=m phases=1 phases=1 LineCode=UA1/0A_UG_SECONDARY_1_1Cond NormAmps=150
Edit Line.29547501 bus1=1079.2.0 bus2=104256.2.0 length=3.048071 units=m phases=1 phases=1 LineCode=UA4/0B_UG_SECONDARY_1_1Cond NormAmps=260
Edit Line.29547503 bus1=104256.2.0 bus2=107155.2.0 length=1.524 units=m phases=1 phases=1 LineCode=UA4/0B_UG_SECONDARY_1_1Cond NormAmps=260
New Line.29547497 bus1=107155.2.0 bus2=102690.2.0 length=3.048 units=m phases=1 phases=1 LineCode=UA4/0B_UG_SECONDARY_1_1Cond NormAmps=260
New Line.29547499 bus1=1079.2.0 bus2=106625.2.0 length=3.047992 units=m phases=1 phases=1 LineCode=UA1/0A_UG_SECONDARY_1_1Cond NormAmps=150
New Line.9967144 bus1=20333.2.0 bus2=101873.2.0 length=38.894158 units=m phases=1 phases=1 LineCode=UA4/0B_UG_SECONDARY_1_1Cond NormAmps=260
New Line.9967183 bus1=20333.2.0 bus2=106880.2.0 length=2.085946 units=m phases=1 phases=1 LineCode=UA1/0A_UG_SECONDARY_1_1Cond NormAmps=150
New Line.9967184 bus1=106880.2.0 bus2=106369.2.0 length=0.914448 units=m phases=1 phases=1 LineCode=UA1/0A_UG_SECONDARY_1_1Cond NormAmps=150
New Line.9967320 bus1=20333.2.0 bus2=102458.2.0 length=49.188489 units=m phases=1 phases=1 LineCode=UA4/0B_UG_SECONDARY_1_1Cond NormAmps=260