!Load
New Load.Load1_March Phases=1 Bus=104484.2.0 kW=7.393 kVAr=1.85313426796296 kV=0.240 Basefreq=60 Model=1 Vminpu=0.95 Vmaxpu=1.05 status=variable daily=Load1_March
New Load.Load2_March Phases=1 Bus=101698.3.0 kW=3.807 kVAr=0.954262263380605 kV=0.240 Basefreq=60 Model=1 Vminpu=0.95 Vmaxpu=1.05 status=variable daily=Load2_March
New Load.Load3_March Phases=1 Bus=105007.2.0 kW=5.32 kVAr=1.45097359368823 kV=0.240 Basefreq=60 Model=1 Vminpu=0.95 Vmaxpu=1.05 status=variable daily=Load3_March
New Load.Load4_March Phases=1 Bus=101503.3.0 kW=5.343 kVAr=1.33928376445834 kV=0.240 Basefreq=60 Model=1 Vminpu=0.95 Vmaxpu=1.05 status=variable daily=Load4_March
New Load.Load5_March Phases=1 Bus=105126.1.0 kW=4.35 kVAr=1.09024627293891 kV=0.240 Basefreq=60 Model=1 Vminpu=0.95 Vmaxpu=1.05 status=variable daily=Load5_March
New Load.Load6_March Phases=1 Bus=104948.1.0 kW=0.03 kVAr=0.0104181993910445 kV=0.240 Basefreq=60 Model=1 Vminpu=0.95 Vmaxpu=1.05 status=variable daily=Load6_March
New Load.Load7_March Phases=1 Bus=105274.2.0 kW=7.35 kVAr=2.66715043932069 kV=0.240 Basefreq=60 Model=1 Vminpu=0.95 Vmaxpu=1.05 status=variable daily=Load7_March
New Load.Load8_March Phases=1 Bus=10188.2.0 kW=3.7 kVAr=0.93069359767339 kV=0.240 Basefreq=60 Model=1 Vminpu=0.95 Vmaxpu=1.05 status=variable daily=Load8_March
New Load.Load9_March Phases=1 Bus=101794.3.0 kW=4.499 kVAr=1.12765744743206 kV=0.240 Basefreq=60 Model=1 Vminpu=0.95 Vmaxpu=1.05 status=variable daily=Load9_March
New Load.Load10_March Phases=1 Bus=106786.2.0 kW=6.66 kVAr=1.66928891751392 kV=0.240 Basefreq=60 Model=1 Vminpu=0.95 Vmaxpu=1.05 status=variable daily=Load10_March
New Load.Load11_March Phases=1 Bus=101762.2.0 kW=4.66 kVAr=1.69107350402143 kV=0.240 Basefreq=60 Model=1 Vminpu=0.95 Vmaxpu=1.05 status=variable daily=Load11_March
New Load.Load12_March Phases=1 Bus=105369.1.0 kW=3.073 kVAr=0.77043056682574 kV=0.240 Basefreq=60 Model=1 Vminpu=0.95 Vmaxpu=1.05 status=variable daily=Load12_March
New Load.Load13_March Phases=1 Bus=105606.2.0 kW=4.13 kVAr=1.03528385820967 kV=0.240 Basefreq=60 Model=1 Vminpu=0.95 Vmaxpu=1.05 status=variable daily=Load13_March
New Load.Load14_March Phases=1 Bus=103969.2.0 kW=6.36 kVAr=1.59412117281778 kV=0.240 Basefreq=60 Model=1 Vminpu=0.95 Vmaxpu=1.05 status=variable daily=Load14_March
New Load.Load15_March Phases=1 Bus=103453.1.0 kW=5.01 kVAr=1.25571101666525 kV=0.240 Basefreq=60 Model=1 Vminpu=0.95 Vmaxpu=1.05 status=variable daily=Load15_March
New Load.Load16_March Phases=1 Bus=106498.3.0 kW=4.41 kVAr=1.10687321092118 kV=0.240 Basefreq=60 Model=1 Vminpu=0.95 Vmaxpu=1.05 status=variable daily=Load16_March
New Load.Load17_March Phases=1 Bus=104203.3.0 kW=2.05 kVAr=0.51543088548501 kV=0.240 Basefreq=60 Model=1 Vminpu=0.95 Vmaxpu=1.05 status=variable daily=Load17_March
New Load.Load18_March Phases=1 Bus=106360.2.0 kW=7.12599999999995 kVAr=2.58610926137187 kV=0.240 Basefreq=60 Model=1 Vminpu=0.95 Vmaxpu=1.05 status=variable daily=Load18_March
New Load.Load19_March Phases=1 Bus=104969.1.0 kW=3.72 kVAr=0.932615563925595 kV=0.240 Basefreq=60 Model=1 Vminpu=0.95 Vmaxpu=1.05 status=variable daily=Load19_March
New Load.Load20_March Phases=1 Bus=104599.1.0 kW=8.38 kVAr=2.10037749892487 kV=0.240 Basefreq=60 Model=1 Vminpu=0.95 Vmaxpu=1.05 status=variable daily=Load20_March
New Load.Load21_March Phases=1 Bus=102108.2.0 kW=2.14 kVAr=0.776569274424675 kV=0.240 Basefreq=60 Model=1 Vminpu=0.95 Vmaxpu=1.05 status=variable daily=Load21_March
New Load.Load22_March Phases=1 Bus=1028.3.0 kW=3.04 kVAr=1.10239705926164 kV=0.240 Basefreq=60 Model=1 Vminpu=0.95 Vmaxpu=1.05 status=variable daily=Load22_March
New Load.Load23_March Phases=1 Bus=103168.1.0 kW=3.91299999999999 kVAr=0.980928587956005 kV=0.240 Basefreq=60 Model=1 Vminpu=0.95 Vmaxpu=1.05 status=variable daily=Load23_March
New Load.Load24_March Phases=1 Bus=106082.2.0 kW=3.49099999999999 kVAr=1.26679297581715 kV=0.240 Basefreq=60 Model=1 Vminpu=0.95 Vmaxpu=1.05 status=variable daily=Load24_March
New Load.Load25_March Phases=1 Bus=106654.1.0 kW=4.851 kVAr=1.21669820464439 kV=0.240 Basefreq=60 Model=1 Vminpu=0.95 Vmaxpu=1.05 status=variable daily=Load25_March
New Load.Load26_March Phases=1 Bus=105853.2.0 kW=2.53 kVAr=0.634377840726505 kV=0.240 Basefreq=60 Model=1 Vminpu=0.95 Vmaxpu=1.05 status=variable daily=Load26_March
New Load.Load27_March Phases=1 Bus=101932.1.0 kW=5.82 kVAr=1.45871449919372 kV=0.240 Basefreq=60 Model=1 Vminpu=0.95 Vmaxpu=1.05 status=variable daily=Load27_March
New Load.Load28_March Phases=1 Bus=106656.3.0 kW=5.887 kVAr=1.47548025087871 kV=0.240 Basefreq=60 Model=1 Vminpu=0.95 Vmaxpu=1.05 status=variable daily=Load28_March
New Load.Load29_March Phases=1 Bus=107392.3.0 kW=1.68 kVAr=0.609637662870975 kV=0.240 Basefreq=60 Model=1 Vminpu=0.95 Vmaxpu=1.05 status=variable daily=Load29_March
New Load.Load30_March Phases=1 Bus=101332.3.0 kW=4.689 kVAr=1.70164439521053 kV=0.240 Basefreq=60 Model=1 Vminpu=0.95 Vmaxpu=1.05 status=variable daily=Load30_March
New Load.Load31_March Phases=1 Bus=10785.3.0 kW=2.11 kVAr=0.765750932873245 kV=0.240 Basefreq=60 Model=1 Vminpu=0.95 Vmaxpu=1.05 status=variable daily=Load31_March
New Load.Load32_March Phases=1 Bus=104777.3.0 kW=5.86 kVAr=2.12661131905304 kV=0.240 Basefreq=60 Model=1 Vminpu=0.95 Vmaxpu=1.05 status=variable daily=Load32_March
New Load.Load33_March Phases=1 Bus=105053.3.0 kW=5.44 kVAr=1.97428360575021 kV=0.240 Basefreq=60 Model=1 Vminpu=0.95 Vmaxpu=1.05 status=variable daily=Load33_March
New Load.Load34_March Phases=1 Bus=101475.1.0 kW=5.39 kVAr=1.36444065207496 kV=0.240 Basefreq=60 Model=1 Vminpu=0.95 Vmaxpu=1.05 status=variable daily=Load34_March
New Load.Load35_March Phases=1 Bus=105599.2.0 kW=5.015 kVAr=1.82012457198255 kV=0.240 Basefreq=60 Model=1 Vminpu=0.95 Vmaxpu=1.05 status=variable daily=Load35_March
New Load.Load36_March Phases=1 Bus=103321.3.0 kW=0.03 kVAr=0.0108467123144572 kV=0.240 Basefreq=60 Model=1 Vminpu=0.95 Vmaxpu=1.05 status=variable daily=Load36_March
New Load.Load37_March Phases=1 Bus=106336.3.0 kW=1.72399999999999 kVAr=0.432249231513525 kV=0.240 Basefreq=60 Model=1 Vminpu=0.95 Vmaxpu=1.05 status=variable daily=Load37_March
New Load.Load38_March Phases=1 Bus=105595.1.0 kW=4.15499999999999 kVAr=1.04277522272676 kV=0.240 Basefreq=60 Model=1 Vminpu=0.95 Vmaxpu=1.05 status=variable daily=Load38_March
New Load.Load39_March Phases=1 Bus=106855.2.0 kW=4.34 kVAr=1.08778822758909 kV=0.240 Basefreq=60 Model=1 Vminpu=0.95 Vmaxpu=1.05 status=variable daily=Load39_March
New Load.Load40_March Phases=1 Bus=10444.3.0 kW=5.54 kVAr=1.3900436207102 kV=0.240 Basefreq=60 Model=1 Vminpu=0.95 Vmaxpu=1.05 status=variable daily=Load40_March
New Load.Load41_March Phases=1 Bus=102188.1.0 kW=3.90199999999999 kVAr=0.97816418508947 kV=0.240 Basefreq=60 Model=1 Vminpu=0.95 Vmaxpu=1.05 status=variable daily=Load41_March
New Load.Load42_March Phases=1 Bus=106611.2.0 kW=6.34 kVAr=1.58915122790067 kV=0.240 Basefreq=60 Model=1 Vminpu=0.95 Vmaxpu=1.05 status=variable daily=Load42_March
New Load.Load43_March Phases=1 Bus=102820.1.0 kW=0.54 kVAr=0.135436022511735 kV=0.240 Basefreq=60 Model=1 Vminpu=0.95 Vmaxpu=1.05 status=variable daily=Load43_March
New Load.Load44_March Phases=1 Bus=107377.2.0 kW=2.7 kVAr=0.979269544207485 kV=0.240 Basefreq=60 Model=1 Vminpu=0.95 Vmaxpu=1.05 status=variable daily=Load44_March
New Load.Load45_March Phases=1 Bus=101825.1.0 kW=4.63 kVAr=1.1604658218053 kV=0.240 Basefreq=60 Model=1 Vminpu=0.95 Vmaxpu=1.05 status=variable daily=Load45_March
New Load.Load46_March Phases=1 Bus=102315.2.0 kW=5.22 kVAr=1.88850280091378 kV=0.240 Basefreq=60 Model=1 Vminpu=0.95 Vmaxpu=1.05 status=variable daily=Load46_March
New Load.Load47_March Phases=1 Bus=102999.2.0 kW=4.59 kVAr=1.15135259595293 kV=0.240 Basefreq=60 Model=1 Vminpu=0.95 Vmaxpu=1.05 status=variable daily=Load47_March
New Load.Load48_March Phases=1 Bus=1027.2.0 kW=2.9 kVAr=0.72695709849617 kV=0.240 Basefreq=60 Model=1 Vminpu=0.95 Vmaxpu=1.05 status=variable daily=Load48_March
New Load.Load49_March Phases=1 Bus=102991.3.0 kW=4.944 kVAr=1.23918406917596 kV=0.240 Basefreq=60 Model=1 Vminpu=0.95 Vmaxpu=1.05 status=variable daily=Load49_March
New Load.Load50_March Phases=1 Bus=104763.3.0 kW=4.48 kVAr=1.12441534972626 kV=0.240 Basefreq=60 Model=1 Vminpu=0.95 Vmaxpu=1.05 status=variable daily=Load50_March
New Load.Load51_March Phases=1 Bus=106737.3.0 kW=5.09 kVAr=1.27727640482105 kV=0.240 Basefreq=60 Model=1 Vminpu=0.95 Vmaxpu=1.05 status=variable daily=Load51_March
New Load.Load52_March Phases=1 Bus=102722.1.0 kW=6.505 kVAr=1.63054658403935 kV=0.240 Basefreq=60 Model=1 Vminpu=0.95 Vmaxpu=1.05 status=variable daily=Load52_March
New Load.Load53_March Phases=1 Bus=102877.2.0 kW=2.74299999999999 kVAr=0.687614492619035 kV=0.240 Basefreq=60 Model=1 Vminpu=0.95 Vmaxpu=1.05 status=variable daily=Load53_March
New Load.Load54_March Phases=1 Bus=103985.2.0 kW=0.68 kVAr=0.170521201452695 kV=0.240 Basefreq=60 Model=1 Vminpu=0.95 Vmaxpu=1.05 status=variable daily=Load54_March
New Load.Load55_March Phases=1 Bus=103940.3.0 kW=4.23 kVAr=1.0602500399112 kV=0.240 Basefreq=60 Model=1 Vminpu=0.95 Vmaxpu=1.05 status=variable daily=Load55_March
New Load.Load56_March Phases=1 Bus=105388.3.0 kW=5.53 kVAr=1.47882036750785 kV=0.240 Basefreq=60 Model=1 Vminpu=0.95 Vmaxpu=1.05 status=variable daily=Load56_March
New Load.Load57_March Phases=1 Bus=104007.1.0 kW=4.03 kVAr=1.01008571111531 kV=0.240 Basefreq=60 Model=1 Vminpu=0.95 Vmaxpu=1.05 status=variable daily=Load57_March
New Load.Load58_March Phases=1 Bus=103970.2.0 kW=5.6 kVAr=2.03165916747338 kV=0.240 Basefreq=60 Model=1 Vminpu=0.95 Vmaxpu=1.05 status=variable daily=Load58_March
New Load.Load59_March Phases=1 Bus=103414.2.0 kW=4.93 kVAr=1.78887299449748 kV=0.240 Basefreq=60 Model=1 Vminpu=0.95 Vmaxpu=1.05 status=variable daily=Load59_March
New Load.Load60_March Phases=1 Bus=104731.1.0 kW=4.629 kVAr=1.16034551392978 kV=0.240 Basefreq=60 Model=1 Vminpu=0.95 Vmaxpu=1.05 status=variable daily=Load60_March
New Load.Load61_March Phases=1 Bus=102618.3.0 kW=1.93 kVAr=0.483731196573071 kV=0.240 Basefreq=60 Model=1 Vminpu=0.95 Vmaxpu=1.05 status=variable daily=Load61_March
New Load.Load62_March Phases=1 Bus=104419.3.0 kW=2.384 kVAr=0.5976119272171 kV=0.240 Basefreq=60 Model=1 Vminpu=0.95 Vmaxpu=1.05 status=variable daily=Load62_March
New Load.Load63_March Phases=1 Bus=105078.1.0 kW=2.94 kVAr=0.73699460827212 kV=0.240 Basefreq=60 Model=1 Vminpu=0.95 Vmaxpu=1.05 status=variable daily=Load63_March
New Load.Load64_March Phases=1 Bus=106586.2.0 kW=3.069 kVAr=1.11360918528681 kV=0.240 Basefreq=60 Model=1 Vminpu=0.95 Vmaxpu=1.05 status=variable daily=Load64_March
New Load.Load65_March Phases=1 Bus=104649.2.0 kW=6.38 kVAr=1.59922201908695 kV=0.240 Basefreq=60 Model=1 Vminpu=0.95 Vmaxpu=1.05 status=variable daily=Load65_March
New Load.Load66_March Phases=1 Bus=10624.3.0 kW=4.2 kVAr=1.05271444733127 kV=0.240 Basefreq=60 Model=1 Vminpu=0.95 Vmaxpu=1.05 status=variable daily=Load66_March
New Load.Load67_March Phases=1 Bus=103849.3.0 kW=3.06 kVAr=0.76855845301831 kV=0.240 Basefreq=60 Model=1 Vminpu=0.95 Vmaxpu=1.05 status=variable daily=Load67_March
New Load.Load68_March Phases=1 Bus=104748.2.0 kW=3.23999999999999 kVAr=1.17565318633947 kV=0.240 Basefreq=60 Model=1 Vminpu=0.95 Vmaxpu=1.05 status=variable daily=Load68_March
New Load.Load69_March Phases=1 Bus=104066.3.0 kW=2.96 kVAr=1.07425770497615 kV=0.240 Basefreq=60 Model=1 Vminpu=0.95 Vmaxpu=1.05 status=variable daily=Load69_March
New Load.Load70_March Phases=1 Bus=101221.3.0 kW=2.977 kVAr=0.747468475264275 kV=0.240 Basefreq=60 Model=1 Vminpu=0.95 Vmaxpu=1.05 status=variable daily=Load70_March
New Load.Load71_March Phases=1 Bus=102534.1.0 kW=4.75 kVAr=1.19064533297933 kV=0.240 Basefreq=60 Model=1 Vminpu=0.95 Vmaxpu=1.05 status=variable daily=Load71_March
New Load.Load72_March Phases=1 Bus=102702.1.0 kW=3.2 kVAr=0.802235003635095 kV=0.240 Basefreq=60 Model=1 Vminpu=0.95 Vmaxpu=1.05 status=variable daily=Load72_March
New Load.Load73_March Phases=1 Bus=102555.1.0 kW=5.152 kVAr=1.29150629557887 kV=0.240 Basefreq=60 Model=1 Vminpu=0.95 Vmaxpu=1.05 status=variable daily=Load73_March
New Load.Load74_March Phases=1 Bus=104439.2.0 kW=2.924 kVAr=0.73301063288439 kV=0.240 Basefreq=60 Model=1 Vminpu=0.95 Vmaxpu=1.05 status=variable daily=Load74_March
New Load.Load75_March Phases=1 Bus=102911.3.0 kW=3.59499999999999 kVAr=0.90122548579311 kV=0.240 Basefreq=60 Model=1 Vminpu=0.95 Vmaxpu=1.05 status=variable daily=Load75_March
New Load.Load76_March Phases=1 Bus=102241.1.0 kW=3.76 kVAr=0.94247278028939 kV=0.240 Basefreq=60 Model=1 Vminpu=0.95 Vmaxpu=1.05 status=variable daily=Load76_March
New Load.Load77_March Phases=1 Bus=102448.2.0 kW=4.03 kVAr=1.42051549067328 kV=0.240 Basefreq=60 Model=1 Vminpu=0.95 Vmaxpu=1.05 status=variable daily=Load77_March
New Load.Load78_March Phases=1 Bus=107137.1.0 kW=3.53 kVAr=0.884718411023715 kV=0.240 Basefreq=60 Model=1 Vminpu=0.95 Vmaxpu=1.05 status=variable daily=Load78_March
New Load.Load79_March Phases=1 Bus=105694.1.0 kW=0.77 kVAr=0.193021812750917 kV=0.240 Basefreq=60 Model=1 Vminpu=0.95 Vmaxpu=1.05 status=variable daily=Load79_March
New Load.Load80_March Phases=1 Bus=101918.3.0 kW=4.049 kVAr=1.22865264288119 kV=0.240 Basefreq=60 Model=1 Vminpu=0.95 Vmaxpu=1.05 status=variable daily=Load80_March
New Load.Load81_March Phases=1 Bus=102902.2.0 kW=0.16 kVAr=0.042716443483529 kV=0.240 Basefreq=60 Model=1 Vminpu=0.95 Vmaxpu=1.05 status=variable daily=Load81_March
New Load.Load82_March Phases=1 Bus=102920.3.0 kW=3.184 kVAr=0.798134950634505 kV=0.240 Basefreq=60 Model=1 Vminpu=0.95 Vmaxpu=1.05 status=variable daily=Load82_March
New Load.Load83_March Phases=1 Bus=10357.2.0 kW=5.99 kVAr=1.50127391939041 kV=0.240 Basefreq=60 Model=1 Vminpu=0.95 Vmaxpu=1.05 status=variable daily=Load83_March
New Load.Load84_March Phases=1 Bus=10854.2.0 kW=4.45 kVAr=1.11537612878397 kV=0.240 Basefreq=60 Model=1 Vminpu=0.95 Vmaxpu=1.05 status=variable daily=Load84_March
New Load.Load85_March Phases=1 Bus=106760.3.0 kW=5.693 kVAr=2.06614467245211 kV=0.240 Basefreq=60 Model=1 Vminpu=0.95 Vmaxpu=1.05 status=variable daily=Load85_March
New Load.Load86_March Phases=1 Bus=106973.1.0 kW=6.56 kVAr=2.38032321690414 kV=0.240 Basefreq=60 Model=1 Vminpu=0.95 Vmaxpu=1.05 status=variable daily=Load86_March
New Load.Load87_March Phases=1 Bus=107485.2.0 kW=3.89 kVAr=0.97493811459365 kV=0.240 Basefreq=60 Model=1 Vminpu=0.95 Vmaxpu=1.05 status=variable daily=Load87_March
New Load.Load88_March Phases=1 Bus=105023.2.0 kW=8.89 kVAr=2.228055970148 kV=0.240 Basefreq=60 Model=1 Vminpu=0.95 Vmaxpu=1.05 status=variable daily=Load88_March
New Load.Load89_March Phases=1 Bus=103180.2.0 kW=6.18 kVAr=1.54886976180716 kV=0.240 Basefreq=60 Model=1 Vminpu=0.95 Vmaxpu=1.05 status=variable daily=Load89_March
New Load.Load90_March Phases=1 Bus=102106.2.0 kW=7.95 kVAr=1.9924746168699 kV=0.240 Basefreq=60 Model=1 Vminpu=0.95 Vmaxpu=1.05 status=variable daily=Load90_March
New Load.Load91_March Phases=1 Bus=104345.2.0 kW=5.65 kVAr=1.41639005866659 kV=0.240 Basefreq=60 Model=1 Vminpu=0.95 Vmaxpu=1.05 status=variable daily=Load91_March
New Load.Load92_March Phases=1 Bus=106080.1.0 kW=4.63 kVAr=1.16046077262314 kV=0.240 Basefreq=60 Model=1 Vminpu=0.95 Vmaxpu=1.05 status=variable daily=Load92_March
New Load.Load93_March Phases=1 Bus=104767.3.0 kW=5.52 kVAr=1.38558337835153 kV=0.240 Basefreq=60 Model=1 Vminpu=0.95 Vmaxpu=1.05 status=variable daily=Load93_March
New Load.Load94_March Phases=1 Bus=104962.3.0 kW=2.524 kVAr=0.632639221321045 kV=0.240 Basefreq=60 Model=1 Vminpu=0.95 Vmaxpu=1.05 status=variable daily=Load94_March
New Load.Load95_March Phases=1 Bus=105432.3.0 kW=4.452 kVAr=1.61485593969038 kV=0.240 Basefreq=60 Model=1 Vminpu=0.95 Vmaxpu=1.05 status=variable daily=Load95_March
New Load.Load96_March Phases=1 Bus=106644.2.0 kW=5.25 kVAr=1.31580627139793 kV=0.240 Basefreq=60 Model=1 Vminpu=0.95 Vmaxpu=1.05 status=variable daily=Load96_March
New Load.Load97_March Phases=1 Bus=105972.2.0 kW=2.841 kVAr=1.03090798527079 kV=0.240 Basefreq=60 Model=1 Vminpu=0.95 Vmaxpu=1.05 status=variable daily=Load97_March
New Load.Load98_March Phases=1 Bus=106380.2.0 kW=10.65 kVAr=2.66928206302555 kV=0.240 Basefreq=60 Model=1 Vminpu=0.95 Vmaxpu=1.05 status=variable daily=Load98_March
New Load.Load99_March Phases=1 Bus=106828.2.0 kW=5.965 kVAr=1.49724297408174 kV=0.240 Basefreq=60 Model=1 Vminpu=0.95 Vmaxpu=1.05 status=variable daily=Load99_March
New Load.Load100_March Phases=1 Bus=103483.2.0 kW=3.65 kVAr=0.917388400256845 kV=0.240 Basefreq=60 Model=1 Vminpu=0.95 Vmaxpu=1.05 status=variable daily=Load100_March
New Load.Load101_March Phases=1 Bus=104960.3.0 kW=5.87 kVAr=2.08800629639244 kV=0.240 Basefreq=60 Model=1 Vminpu=0.95 Vmaxpu=1.05 status=variable daily=Load101_March
New Load.Load102_March Phases=1 Bus=105965.3.0 kW=4.48 kVAr=1.12439597670975 kV=0.240 Basefreq=60 Model=1 Vminpu=0.95 Vmaxpu=1.05 status=variable daily=Load102_March
New Load.Load103_March Phases=1 Bus=101516.3.0 kW=5.243 kVAr=1.90290603638547 kV=0.240 Basefreq=60 Model=1 Vminpu=0.95 Vmaxpu=1.05 status=variable daily=Load103_March
New Load.Load104_March Phases=1 Bus=104772.2.0 kW=5.531 kVAr=1.38653633861944 kV=0.240 Basefreq=60 Model=1 Vminpu=0.95 Vmaxpu=1.05 status=variable daily=Load104_March
New Load.Load105_March Phases=1 Bus=102011.3.0 kW=5.794 kVAr=1.45220958327454 kV=0.240 Basefreq=60 Model=1 Vminpu=0.95 Vmaxpu=1.05 status=variable daily=Load105_March
New Load.Load106_March Phases=1 Bus=102180.2.0 kW=2.253 kVAr=0.817659959793975 kV=0.240 Basefreq=60 Model=1 Vminpu=0.95 Vmaxpu=1.05 status=variable daily=Load106_March
New Load.Load107_March Phases=1 Bus=105489.1.0 kW=3.21 kVAr=0.80525928077827 kV=0.240 Basefreq=60 Model=1 Vminpu=0.95 Vmaxpu=1.05 status=variable daily=Load107_March
New Load.Load108_March Phases=1 Bus=107298.1.0 kW=4.09 kVAr=1.02509481096363 kV=0.240 Basefreq=60 Model=1 Vminpu=0.95 Vmaxpu=1.05 status=variable daily=Load108_March
New Load.Load109_March Phases=1 Bus=107232.1.0 kW=6.56 kVAr=1.64410744630813 kV=0.240 Basefreq=60 Model=1 Vminpu=0.95 Vmaxpu=1.05 status=variable daily=Load109_March
New Load.Load110_March Phases=1 Bus=103102.2.0 kW=5.23 kVAr=1.31081642932837 kV=0.240 Basefreq=60 Model=1 Vminpu=0.95 Vmaxpu=1.05 status=variable daily=Load110_March
New Load.Load111_March Phases=1 Bus=10990.3.0 kW=6.68 kVAr=1.67422196359315 kV=0.240 Basefreq=60 Model=1 Vminpu=0.95 Vmaxpu=1.05 status=variable daily=Load111_March
New Load.Load112_March Phases=1 Bus=104154.3.0 kW=4.364 kVAr=1.58364398885831 kV=0.240 Basefreq=60 Model=1 Vminpu=0.95 Vmaxpu=1.05 status=variable daily=Load112_March
New Load.Load113_March Phases=1 Bus=104045.2.0 kW=5.22 kVAr=1.89439242131592 kV=0.240 Basefreq=60 Model=1 Vminpu=0.95 Vmaxpu=1.05 status=variable daily=Load113_March
New Load.Load114_March Phases=1 Bus=101082.2.0 kW=3.917 kVAr=1.42143383179635 kV=0.240 Basefreq=60 Model=1 Vminpu=0.95 Vmaxpu=1.05 status=variable daily=Load114_March
New Load.Load115_March Phases=1 Bus=104609.3.0 kW=4.705 kVAr=1.17922569044616 kV=0.240 Basefreq=60 Model=1 Vminpu=0.95 Vmaxpu=1.05 status=variable daily=Load115_March
New Load.Load116_March Phases=1 Bus=103324.2.0 kW=0.4 kVAr=0.136951235714374 kV=0.240 Basefreq=60 Model=1 Vminpu=0.95 Vmaxpu=1.05 status=variable daily=Load116_March
New Load.Load117_March Phases=1 Bus=102492.2.0 kW=3.51 kVAr=0.88046059536608 kV=0.240 Basefreq=60 Model=1 Vminpu=0.95 Vmaxpu=1.05 status=variable daily=Load117_March
New Load.Load118_March Phases=1 Bus=107385.1.0 kW=4.813 kVAr=1.2063554654084 kV=0.240 Basefreq=60 Model=1 Vminpu=0.95 Vmaxpu=1.05 status=variable daily=Load118_March
New Load.Load119_March Phases=1 Bus=103422.1.0 kW=1.75 kVAr=0.438704293899353 kV=0.240 Basefreq=60 Model=1 Vminpu=0.95 Vmaxpu=1.05 status=variable daily=Load119_March
New Load.Load120_March Phases=1 Bus=101570.2.0 kW=2.02 kVAr=0.732698129704555 kV=0.240 Basefreq=60 Model=1 Vminpu=0.95 Vmaxpu=1.05 status=variable daily=Load120_March
New Load.Load121_March Phases=1 Bus=102744.1.0 kW=8.186 kVAr=2.05168993564604 kV=0.240 Basefreq=60 Model=1 Vminpu=0.95 Vmaxpu=1.05 status=variable daily=Load121_March
New Load.Load122_March Phases=1 Bus=103468.2.0 kW=6.965 kVAr=1.74588387563256 kV=0.240 Basefreq=60 Model=1 Vminpu=0.95 Vmaxpu=1.05 status=variable daily=Load122_March
New Load.Load123_March Phases=1 Bus=107146.2.0 kW=6.369 kVAr=2.31155895634375 kV=0.240 Basefreq=60 Model=1 Vminpu=0.95 Vmaxpu=1.05 status=variable daily=Load123_March
New Load.Load124_March Phases=1 Bus=101036.1.0 kW=6.60499999999995 kVAr=1.65541696961854 kV=0.240 Basefreq=60 Model=1 Vminpu=0.95 Vmaxpu=1.05 status=variable daily=Load124_March
New Load.Load125_March Phases=1 Bus=103983.2.0 kW=1.46 kVAr=0.368083450250074 kV=0.240 Basefreq=60 Model=1 Vminpu=0.95 Vmaxpu=1.05 status=variable daily=Load125_March
New Load.Load126_March Phases=1 Bus=1035.3.0 kW=3 kVAr=1.08864333832351 kV=0.240 Basefreq=60 Model=1 Vminpu=0.95 Vmaxpu=1.05 status=variable daily=Load126_March
New Load.Load127_March Phases=1 Bus=102487.2.0 kW=4.71 kVAr=1.18102079042387 kV=0.240 Basefreq=60 Model=1 Vminpu=0.95 Vmaxpu=1.05 status=variable daily=Load127_March
New Load.Load128_March Phases=1 Bus=101005.2.0 kW=5.101 kVAr=1.28141868813946 kV=0.240 Basefreq=60 Model=1 Vminpu=0.95 Vmaxpu=1.05 status=variable daily=Load128_March
New Load.Load129_March Phases=1 Bus=103333.3.0 kW=4.42 kVAr=1.10942440382502 kV=0.240 Basefreq=60 Model=1 Vminpu=0.95 Vmaxpu=1.05 status=variable daily=Load129_March
New Load.Load130_March Phases=1 Bus=103579.1.0 kW=3.67 kVAr=0.921524793906795 kV=0.240 Basefreq=60 Model=1 Vminpu=0.95 Vmaxpu=1.05 status=variable daily=Load130_March
New Load.Load131_March Phases=1 Bus=106602.3.0 kW=3.528 kVAr=0.88426027943472 kV=0.240 Basefreq=60 Model=1 Vminpu=0.95 Vmaxpu=1.05 status=variable daily=Load131_March
New Load.Load132_March Phases=1 Bus=104930.1.0 kW=4.88 kVAr=1.22367133442505 kV=0.240 Basefreq=60 Model=1 Vminpu=0.95 Vmaxpu=1.05 status=variable daily=Load132_March
New Load.Load133_March Phases=1 Bus=103979.2.0 kW=2.45 kVAr=0.88887839365845 kV=0.240 Basefreq=60 Model=1 Vminpu=0.95 Vmaxpu=1.05 status=variable daily=Load133_March
New Load.Load134_March Phases=1 Bus=10483.1.0 kW=1.77 kVAr=0.443655607717335 kV=0.240 Basefreq=60 Model=1 Vminpu=0.95 Vmaxpu=1.05 status=variable daily=Load134_March
New Load.Load135_March Phases=1 Bus=105691.3.0 kW=8.025 kVAr=2.01129213497143 kV=0.240 Basefreq=60 Model=1 Vminpu=0.95 Vmaxpu=1.05 status=variable daily=Load135_March
New Load.Load136_March Phases=1 Bus=101707.2.0 kW=3.45 kVAr=0.864724929886345 kV=0.240 Basefreq=60 Model=1 Vminpu=0.95 Vmaxpu=1.05 status=variable daily=Load136_March
New Load.Load137_March Phases=1 Bus=106909.1.0 kW=6.278 kVAr=1.57563917690361 kV=0.240 Basefreq=60 Model=1 Vminpu=0.95 Vmaxpu=1.05 status=variable daily=Load137_March
New Load.Load138_March Phases=1 Bus=107071.3.0 kW=4.853 kVAr=1.21636851991667 kV=0.240 Basefreq=60 Model=1 Vminpu=0.95 Vmaxpu=1.05 status=variable daily=Load138_March
New Load.Load139_March Phases=1 Bus=10777.2.0 kW=6.19 kVAr=2.24611985261767 kV=0.240 Basefreq=60 Model=1 Vminpu=0.95 Vmaxpu=1.05 status=variable daily=Load139_March
New Load.Load140_March Phases=1 Bus=104937.3.0 kW=2.26199999999999 kVAr=0.817968026093995 kV=0.240 Basefreq=60 Model=1 Vminpu=0.95 Vmaxpu=1.05 status=variable daily=Load140_March
New Load.Load141_March Phases=1 Bus=103822.1.0 kW=5.23 kVAr=1.310799118507 kV=0.240 Basefreq=60 Model=1 Vminpu=0.95 Vmaxpu=1.05 status=variable daily=Load141_March
New Load.Load142_March Phases=1 Bus=105259.3.0 kW=4.2 kVAr=1.05276668714737 kV=0.240 Basefreq=60 Model=1 Vminpu=0.95 Vmaxpu=1.05 status=variable daily=Load142_March
New Load.Load143_March Phases=1 Bus=10645.2.0 kW=6.9 kVAr=1.72932226904164 kV=0.240 Basefreq=60 Model=1 Vminpu=0.95 Vmaxpu=1.05 status=variable daily=Load143_March
New Load.Load144_March Phases=1 Bus=103794.3.0 kW=2.196 kVAr=0.550449415765815 kV=0.240 Basefreq=60 Model=1 Vminpu=0.95 Vmaxpu=1.05 status=variable daily=Load144_March
New Load.Load145_March Phases=1 Bus=101268.1.0 kW=4.79 kVAr=1.20053762777983 kV=0.240 Basefreq=60 Model=1 Vminpu=0.95 Vmaxpu=1.05 status=variable daily=Load145_March
New Load.Load146_March Phases=1 Bus=103226.3.0 kW=6.58 kVAr=1.65074038294922 kV=0.240 Basefreq=60 Model=1 Vminpu=0.95 Vmaxpu=1.05 status=variable daily=Load146_March
New Load.Load147_March Phases=1 Bus=102564.3.0 kW=5.237 kVAr=1.31284472565311 kV=0.240 Basefreq=60 Model=1 Vminpu=0.95 Vmaxpu=1.05 status=variable daily=Load147_March
New Load.Load148_March Phases=1 Bus=102636.2.0 kW=4.422 kVAr=1.10880010274136 kV=0.240 Basefreq=60 Model=1 Vminpu=0.95 Vmaxpu=1.05 status=variable daily=Load148_March
New Load.Load149_March Phases=1 Bus=106972.3.0 kW=2.22 kVAr=0.55641468010958 kV=0.240 Basefreq=60 Model=1 Vminpu=0.95 Vmaxpu=1.05 status=variable daily=Load149_March
New Load.Load150_March Phases=1 Bus=104408.3.0 kW=7.547 kVAr=1.89152915996883 kV=0.240 Basefreq=60 Model=1 Vminpu=0.95 Vmaxpu=1.05 status=variable daily=Load150_March
New Load.Load151_March Phases=1 Bus=105125.3.0 kW=4.36799999999999 kVAr=1.58528985469502 kV=0.240 Basefreq=60 Model=1 Vminpu=0.95 Vmaxpu=1.05 status=variable daily=Load151_March
New Load.Load152_March Phases=1 Bus=104416.1.0 kW=4.79 kVAr=1.7383444486544 kV=0.240 Basefreq=60 Model=1 Vminpu=0.95 Vmaxpu=1.05 status=variable daily=Load152_March
New Load.Load153_March Phases=1 Bus=101970.1.0 kW=5.25 kVAr=1.31580220833485 kV=0.240 Basefreq=60 Model=1 Vminpu=0.95 Vmaxpu=1.05 status=variable daily=Load153_March
New Load.Load154_March Phases=1 Bus=103783.1.0 kW=4.53 kVAr=1.13537791687689 kV=0.240 Basefreq=60 Model=1 Vminpu=0.95 Vmaxpu=1.05 status=variable daily=Load154_March
New Load.Load155_March Phases=1 Bus=101444.1.0 kW=4.05 kVAr=1.01507604573525 kV=0.240 Basefreq=60 Model=1 Vminpu=0.95 Vmaxpu=1.05 status=variable daily=Load155_March
New Load.Load156_March Phases=1 Bus=102985.1.0 kW=2.76 kVAr=0.691784128643295 kV=0.240 Basefreq=60 Model=1 Vminpu=0.95 Vmaxpu=1.05 status=variable daily=Load156_March
New Load.Load157_March Phases=1 Bus=101797.3.0 kW=0.94 kVAr=0.23573252235548 kV=0.240 Basefreq=60 Model=1 Vminpu=0.95 Vmaxpu=1.05 status=variable daily=Load157_March
New Load.Load158_March Phases=1 Bus=105988.1.0 kW=0.17 kVAr=0.0427036025985457 kV=0.240 Basefreq=60 Model=1 Vminpu=0.95 Vmaxpu=1.05 status=variable daily=Load158_March
New Load.Load159_March Phases=1 Bus=103202.3.0 kW=6.66 kVAr=1.66921982076558 kV=0.240 Basefreq=60 Model=1 Vminpu=0.95 Vmaxpu=1.05 status=variable daily=Load159_March
New Load.Load160_March Phases=1 Bus=105767.2.0 kW=2.02 kVAr=0.732611449148895 kV=0.240 Basefreq=60 Model=1 Vminpu=0.95 Vmaxpu=1.05 status=variable daily=Load160_March
New Load.Load161_March Phases=1 Bus=107251.3.0 kW=3.73 kVAr=0.934898208955415 kV=0.240 Basefreq=60 Model=1 Vminpu=0.95 Vmaxpu=1.05 status=variable daily=Load161_March
New Load.Load162_March Phases=1 Bus=103603.1.0 kW=3.925 kVAr=1.42441708241465 kV=0.240 Basefreq=60 Model=1 Vminpu=0.95 Vmaxpu=1.05 status=variable daily=Load162_March
New Load.Load163_March Phases=1 Bus=103133.2.0 kW=5.65 kVAr=1.52243512386848 kV=0.240 Basefreq=60 Model=1 Vminpu=0.95 Vmaxpu=1.05 status=variable daily=Load163_March
New Load.Load164_March Phases=1 Bus=102577.1.0 kW=0.14 kVAr=0.035780525952192 kV=0.240 Basefreq=60 Model=1 Vminpu=0.95 Vmaxpu=1.05 status=variable daily=Load164_March
New Load.Load165_March Phases=1 Bus=106326.3.0 kW=3.19 kVAr=1.15760412276316 kV=0.240 Basefreq=60 Model=1 Vminpu=0.95 Vmaxpu=1.05 status=variable daily=Load165_March
New Load.Load166_March Phases=1 Bus=107488.3.0 kW=0.94 kVAr=0.237477335635941 kV=0.240 Basefreq=60 Model=1 Vminpu=0.95 Vmaxpu=1.05 status=variable daily=Load166_March
New Load.Load167_March Phases=1 Bus=107276.2.0 kW=3.17 kVAr=0.79461722886013 kV=0.240 Basefreq=60 Model=1 Vminpu=0.95 Vmaxpu=1.05 status=variable daily=Load167_March
New Load.Load168_March Phases=1 Bus=103901.2.0 kW=3.519 kVAr=0.881965802731705 kV=0.240 Basefreq=60 Model=1 Vminpu=0.95 Vmaxpu=1.05 status=variable daily=Load168_March
New Load.Load169_March Phases=1 Bus=102109.2.0 kW=3.16 kVAr=1.14648425266453 kV=0.240 Basefreq=60 Model=1 Vminpu=0.95 Vmaxpu=1.05 status=variable daily=Load169_March
New Load.Load170_March Phases=1 Bus=105456.1.0 kW=0.84 kVAr=0.304701221438128 kV=0.240 Basefreq=60 Model=1 Vminpu=0.95 Vmaxpu=1.05 status=variable daily=Load170_March
New Load.Load171_March Phases=1 Bus=102418.3.0 kW=4.898 kVAr=1.22762684306376 kV=0.240 Basefreq=60 Model=1 Vminpu=0.95 Vmaxpu=1.05 status=variable daily=Load171_March
New Load.Load172_March Phases=1 Bus=106726.3.0 kW=4.04599999999999 kVAr=1.01406756390857 kV=0.240 Basefreq=60 Model=1 Vminpu=0.95 Vmaxpu=1.05 status=variable daily=Load172_March
New Load.Load173_March Phases=1 Bus=10331.3.0 kW=5.663 kVAr=1.42478372505321 kV=0.240 Basefreq=60 Model=1 Vminpu=0.95 Vmaxpu=1.05 status=variable daily=Load173_March
New Load.Load174_March Phases=1 Bus=106499.3.0 kW=0.36 kVAr=0.090516260389854 kV=0.240 Basefreq=60 Model=1 Vminpu=0.95 Vmaxpu=1.05 status=variable daily=Load174_March
New Load.Load175_March Phases=1 Bus=106846.3.0 kW=5.29 kVAr=1.32584495560415 kV=0.240 Basefreq=60 Model=1 Vminpu=0.95 Vmaxpu=1.05 status=variable daily=Load175_March
New Load.Load176_March Phases=1 Bus=101331.1.0 kW=3 kVAr=1.08871724377025 kV=0.240 Basefreq=60 Model=1 Vminpu=0.95 Vmaxpu=1.05 status=variable daily=Load176_March
New Load.Load177_March Phases=1 Bus=105335.2.0 kW=4.877 kVAr=1.76886531674923 kV=0.240 Basefreq=60 Model=1 Vminpu=0.95 Vmaxpu=1.05 status=variable daily=Load177_March
New Load.Load178_March Phases=1 Bus=10460.3.0 kW=3.36 kVAr=0.842160785005245 kV=0.240 Basefreq=60 Model=1 Vminpu=0.95 Vmaxpu=1.05 status=variable daily=Load178_March
New Load.Load179_March Phases=1 Bus=103054.1.0 kW=3.15 kVAr=0.789492860962755 kV=0.240 Basefreq=60 Model=1 Vminpu=0.95 Vmaxpu=1.05 status=variable daily=Load179_March