!PV

!PV from Meters
New Generator.DG_1 bus1=104159.2.0 phases=1 kW=0.8999999999999999 pf=1.0 kV=0.240 Basefreq=60 Model=7 Vminpu=0.95 Vmaxpu=1.05 status=variable daily=PV1_March
New Generator.DG_2 bus1=103364.2.0 phases=1 kW=0.8599999999999999 pf=1.0 kV=0.240 Basefreq=60 Model=7 Vminpu=0.95 Vmaxpu=1.05 status=variable daily=PV2_March
New Generator.DG_3 bus1=105590.3.0 phases=1 kW=0.39 pf=1.0 kV=0.240 Basefreq=60 Model=7 Vminpu=0.95 Vmaxpu=1.05 status=variable daily=PV3_March
New Generator.DG_4 bus1=101152.3.0 phases=1 kW=2.51 pf=1.0 kV=0.240 Basefreq=60 Model=7 Vminpu=0.95 Vmaxpu=1.05 status=variable daily=PV4_March
New Generator.DG_5 bus1=102697.3.0 phases=1 kW=2.73 pf=1.0 kV=0.240 Basefreq=60 Model=7 Vminpu=0.95 Vmaxpu=1.05 status=variable daily=PV5_March
New Generator.DG_6 bus1=105627.3.0 phases=1 kW=4.21 pf=1.0 kV=0.240 Basefreq=60 Model=7 Vminpu=0.95 Vmaxpu=1.05 status=variable daily=PV6_March
New Generator.DG_7 bus1=106211.3.0 phases=1 kW=2.37 pf=1.0 kV=0.240 Basefreq=60 Model=7 Vminpu=0.95 Vmaxpu=1.05 status=variable daily=PV7_March
New Generator.DG_8 bus1=104694.3.0 phases=1 kW=2.92 pf=1.0 kV=0.240 Basefreq=60 Model=7 Vminpu=0.95 Vmaxpu=1.05 status=variable daily=PV8_March
New Generator.DG_9 bus1=105321.3.0 phases=1 kW=4.07 pf=1.0 kV=0.240 Basefreq=60 Model=7 Vminpu=0.95 Vmaxpu=1.05 status=variable daily=PV9_March
New Generator.DG_10 bus1=10623.3.0 phases=1 kW=1.2 pf=1.0 kV=0.240 Basefreq=60 Model=7 Vminpu=0.95 Vmaxpu=1.05 status=variable daily=PV10_March
New Generator.DG_11 bus1=10221.3.0 phases=1 kW=1.95 pf=1.0 kV=0.240 Basefreq=60 Model=7 Vminpu=0.95 Vmaxpu=1.05 status=variable daily=PV11_March
New Generator.DG_12 bus1=10221.3.0 phases=1 kW=1.1600000000000001 pf=1.0 kV=0.240 Basefreq=60 Model=7 Vminpu=0.95 Vmaxpu=1.05 status=variable daily=PV12_March
New Generator.DG_13 bus1=10221.3.0 phases=1 kW=0.43 pf=1.0 kV=0.240 Basefreq=60 Model=7 Vminpu=0.95 Vmaxpu=1.05 status=variable daily=PV13_March
New Generator.DG_14 bus1=10221.3.0 phases=1 kW=1.02 pf=1.0 kV=0.240 Basefreq=60 Model=7 Vminpu=0.95 Vmaxpu=1.05 status=variable daily=PV14_March
New Generator.DG_15 bus1=10221.3.0 phases=1 kW=0.58 pf=1.0 kV=0.240 Basefreq=60 Model=7 Vminpu=0.95 Vmaxpu=1.05 status=variable daily=PV15_March
New Generator.DG_16 bus1=103695.3.0 phases=1 kW=1.08 pf=1.0 kV=0.240 Basefreq=60 Model=7 Vminpu=0.95 Vmaxpu=1.05 status=variable daily=PV16_March
New Generator.DG_17 bus1=105372.3.0 phases=1 kW=4.9399999999999995 pf=1.0 kV=0.240 Basefreq=60 Model=7 Vminpu=0.95 Vmaxpu=1.05 status=variable daily=PV17_March
New Generator.DG_18 bus1=105873.3.0 phases=1 kW=0.75 pf=1.0 kV=0.240 Basefreq=60 Model=7 Vminpu=0.95 Vmaxpu=1.05 status=variable daily=PV18_March
New Generator.DG_19 bus1=101894.3.0 phases=1 kW=1.1600000000000001 pf=1.0 kV=0.240 Basefreq=60 Model=7 Vminpu=0.95 Vmaxpu=1.05 status=variable daily=PV19_March
New Generator.DG_20 bus1=102418.3.0 phases=1 kW=2.3200000000000003 pf=1.0 kV=0.240 Basefreq=60 Model=7 Vminpu=0.95 Vmaxpu=1.05 status=variable daily=PV20_March
New Generator.DG_21 bus1=103169.3.0 phases=1 kW=0.47000000000000003 pf=1.0 kV=0.240 Basefreq=60 Model=7 Vminpu=0.95 Vmaxpu=1.05 status=variable daily=PV21_March
New Generator.DG_22 bus1=106656.3.0 phases=1 kW=1.26 pf=1.0 kV=0.240 Basefreq=60 Model=7 Vminpu=0.95 Vmaxpu=1.05 status=variable daily=PV22_March
New Generator.DG_23 bus1=102705.3.0 phases=1 kW=3.46 pf=1.0 kV=0.240 Basefreq=60 Model=7 Vminpu=0.95 Vmaxpu=1.05 status=variable daily=PV23_March
New Generator.DG_24 bus1=103696.3.0 phases=1 kW=2.31 pf=1.0 kV=0.240 Basefreq=60 Model=7 Vminpu=0.95 Vmaxpu=1.05 status=variable daily=PV24_March
New Generator.DG_25 bus1=106602.3.0 phases=1 kW=0.7899999999999999 pf=1.0 kV=0.240 Basefreq=60 Model=7 Vminpu=0.95 Vmaxpu=1.05 status=variable daily=PV25_March
New Generator.DG_26 bus1=103719.3.0 phases=1 kW=3.448 pf=1.0 kV=0.240 Basefreq=60 Model=7 Vminpu=0.95 Vmaxpu=1.05 status=variable daily=PV26_March
New Generator.DG_27 bus1=107147.3.0 phases=1 kW=0.55 pf=1.0 kV=0.240 Basefreq=60 Model=7 Vminpu=0.95 Vmaxpu=1.05 status=variable daily=PV27_March
New Generator.DG_28 bus1=103189.3.0 phases=1 kW=0.76 pf=1.0 kV=0.240 Basefreq=60 Model=7 Vminpu=0.95 Vmaxpu=1.05 status=variable daily=PV28_March
New Generator.DG_29 bus1=102705.3.0 phases=1 kW=1.58 pf=1.0 kV=0.240 Basefreq=60 Model=7 Vminpu=0.95 Vmaxpu=1.05 status=variable daily=PV29_March
New Generator.DG_30 bus1=10821.3.0 phases=1 kW=3.2 pf=1.0 kV=0.240 Basefreq=60 Model=7 Vminpu=0.95 Vmaxpu=1.05 status=variable daily=PV30_March
New Generator.DG_31 bus1=107123.3.0 phases=1 kW=2.75 pf=1.0 kV=0.240 Basefreq=60 Model=7 Vminpu=0.95 Vmaxpu=1.05 status=variable daily=PV31_March
New Generator.DG_32 bus1=10785.3.0 phases=1 kW=3.7199999999999998 pf=1.0 kV=0.240 Basefreq=60 Model=7 Vminpu=0.95 Vmaxpu=1.05 status=variable daily=PV32_March
New Generator.DG_1090607729_1 bus1=10395.2.0 phases=1 kW=1.4000000000000001 pf=1.0 kV=0.240 Basefreq=60 Model=7 Vminpu=0.95 Vmaxpu=1.05 status=variable daily=PV33_March
New Generator.DG_1090607729_2 bus1=10395.2.0 phases=1 kW=1.1400000000000001 pf=1.0 kV=0.240 Basefreq=60 Model=7 Vminpu=0.95 Vmaxpu=1.05 status=variable daily=PV33_March
New Generator.DG_33 bus1=10916.2.0 phases=1 kW=1.13 pf=1.0 kV=0.240 Basefreq=60 Model=7 Vminpu=0.95 Vmaxpu=1.05 status=variable daily=PV34_March
New Generator.DG_34 bus1=105430.2.0 phases=1 kW=0.5399999999999999 pf=1.0 kV=0.240 Basefreq=60 Model=7 Vminpu=0.95 Vmaxpu=1.05 status=variable daily=PV35_March
New Generator.DG_35 bus1=105327.2.0 phases=1 kW=1.07 pf=1.0 kV=0.240 Basefreq=60 Model=7 Vminpu=0.95 Vmaxpu=1.05 status=variable daily=PV36_March
New Generator.DG_36 bus1=101325.2.0 phases=1 kW=1.0 pf=1.0 kV=0.240 Basefreq=60 Model=7 Vminpu=0.95 Vmaxpu=1.05 status=variable daily=PV37_March
New Generator.DG_37 bus1=104772.2.0 phases=1 kW=0.42 pf=1.0 kV=0.240 Basefreq=60 Model=7 Vminpu=0.95 Vmaxpu=1.05 status=variable daily=PV38_March
New Generator.DG_38 bus1=105726.2.0 phases=1 kW=0.37 pf=1.0 kV=0.240 Basefreq=60 Model=7 Vminpu=0.95 Vmaxpu=1.05 status=variable daily=PV39_March
New Generator.DG_39 bus1=101325.2.0 phases=1 kW=1.1099999999999999 pf=1.0 kV=0.240 Basefreq=60 Model=7 Vminpu=0.95 Vmaxpu=1.05 status=variable daily=PV40_March
New Generator.DG_40 bus1=107142.2.0 phases=1 kW=0.95 pf=1.0 kV=0.240 Basefreq=60 Model=7 Vminpu=0.95 Vmaxpu=1.05 status=variable daily=PV41_March
New Generator.DG_41 bus1=103712.2.0 phases=1 kW=0.8599999999999999 pf=1.0 kV=0.240 Basefreq=60 Model=7 Vminpu=0.95 Vmaxpu=1.05 status=variable daily=PV42_March
New Generator.DG_42 bus1=102657.2.0 phases=1 kW=0.96 pf=1.0 kV=0.240 Basefreq=60 Model=7 Vminpu=0.95 Vmaxpu=1.05 status=variable daily=PV43_March
New Generator.DG_43 bus1=104235.2.0 phases=1 kW=0.95 pf=1.0 kV=0.240 Basefreq=60 Model=7 Vminpu=0.95 Vmaxpu=1.05 status=variable daily=PV44_March
New Generator.DG_44 bus1=105581.2.0 phases=1 kW=0.95 pf=1.0 kV=0.240 Basefreq=60 Model=7 Vminpu=0.95 Vmaxpu=1.05 status=variable daily=PV45_March
New Generator.DG_45 bus1=105594.2.0 phases=1 kW=0.98 pf=1.0 kV=0.240 Basefreq=60 Model=7 Vminpu=0.95 Vmaxpu=1.05 status=variable daily=PV46_March
New Generator.DG_46 bus1=103604.1.0 phases=1 kW=2.01 pf=1.0 kV=0.240 Basefreq=60 Model=7 Vminpu=0.95 Vmaxpu=1.05 status=variable daily=PV47_March
New Generator.DG_47 bus1=101093.1.0 phases=1 kW=1.53 pf=1.0 kV=0.240 Basefreq=60 Model=7 Vminpu=0.95 Vmaxpu=1.05 status=variable daily=PV48_March
New Generator.DG_48 bus1=101036.1.0 phases=1 kW=4.64 pf=1.0 kV=0.240 Basefreq=60 Model=7 Vminpu=0.95 Vmaxpu=1.05 status=variable daily=PV49_March
New Generator.DG_49 bus1=102187.1.0 phases=1 kW=3.2199999999999998 pf=1.0 kV=0.240 Basefreq=60 Model=7 Vminpu=0.95 Vmaxpu=1.05 status=variable daily=PV50_March
New Generator.DG_50 bus1=107290.1.0 phases=1 kW=3.26 pf=1.0 kV=0.240 Basefreq=60 Model=7 Vminpu=0.95 Vmaxpu=1.05 status=variable daily=PV51_March
New Generator.DG_51 bus1=103901.2.0 phases=1 kW=3.12 pf=1.0 kV=0.240 Basefreq=60 Model=7 Vminpu=0.95 Vmaxpu=1.05 status=variable daily=PV52_March
New Generator.DG_52 bus1=105370.2.0 phases=1 kW=3.29 pf=1.0 kV=0.240 Basefreq=60 Model=7 Vminpu=0.95 Vmaxpu=1.05 status=variable daily=PV53_March
New Generator.DG_53 bus1=101596.2.0 phases=1 kW=2.65 pf=1.0 kV=0.240 Basefreq=60 Model=7 Vminpu=0.95 Vmaxpu=1.05 status=variable daily=PV54_March
New Generator.DG_54 bus1=105721.2.0 phases=1 kW=1.85 pf=1.0 kV=0.240 Basefreq=60 Model=7 Vminpu=0.95 Vmaxpu=1.05 status=variable daily=PV55_March
New Generator.DG_55 bus1=102653.2.0 phases=1 kW=0.92 pf=1.0 kV=0.240 Basefreq=60 Model=7 Vminpu=0.95 Vmaxpu=1.05 status=variable daily=PV56_March
New Generator.DG_56 bus1=104321.1.0 phases=1 kW=3.63 pf=1.0 kV=0.240 Basefreq=60 Model=7 Vminpu=0.95 Vmaxpu=1.05 status=variable daily=PV57_March
New Generator.DG_57 bus1=101466.1.0 phases=1 kW=3.6199999999999997 pf=1.0 kV=0.240 Basefreq=60 Model=7 Vminpu=0.95 Vmaxpu=1.05 status=variable daily=PV58_March
New Generator.DG_58 bus1=101971.1.0 phases=1 kW=3.25 pf=1.0 kV=0.240 Basefreq=60 Model=7 Vminpu=0.95 Vmaxpu=1.05 status=variable daily=PV59_March
New Generator.DG_59 bus1=10616.1.0 phases=1 kW=3.61 pf=1.0 kV=0.240 Basefreq=60 Model=7 Vminpu=0.95 Vmaxpu=1.05 status=variable daily=PV60_March
New Generator.DG_60 bus1=105079.1.0 phases=1 kW=2.81 pf=1.0 kV=0.240 Basefreq=60 Model=7 Vminpu=0.95 Vmaxpu=1.05 status=variable daily=PV61_March
New Generator.DG_61 bus1=104914.1.0 phases=1 kW=3.25 pf=1.0 kV=0.240 Basefreq=60 Model=7 Vminpu=0.95 Vmaxpu=1.05 status=variable daily=PV62_March
New Generator.DG_62 bus1=101185.1.0 phases=1 kW=2.4 pf=1.0 kV=0.240 Basefreq=60 Model=7 Vminpu=0.95 Vmaxpu=1.05 status=variable daily=PV63_March
New Generator.DG_63 bus1=10321.1.0 phases=1 kW=4.43 pf=1.0 kV=0.240 Basefreq=60 Model=7 Vminpu=0.95 Vmaxpu=1.05 status=variable daily=PV64_March
New Generator.DG_64 bus1=106424.1.0 phases=1 kW=2.79 pf=1.0 kV=0.240 Basefreq=60 Model=7 Vminpu=0.95 Vmaxpu=1.05 status=variable daily=PV65_March
New Generator.DG_65 bus1=104639.1.0 phases=1 kW=3.54 pf=1.0 kV=0.240 Basefreq=60 Model=7 Vminpu=0.95 Vmaxpu=1.05 status=variable daily=PV66_March
New Generator.DG_66 bus1=104471.2.0 phases=1 kW=1.4300000000000002 pf=1.0 kV=0.240 Basefreq=60 Model=7 Vminpu=0.95 Vmaxpu=1.05 status=variable daily=PV67_March
New Generator.DG_67 bus1=104055.1.0 phases=1 kW=3.7600000000000002 pf=1.0 kV=0.240 Basefreq=60 Model=7 Vminpu=0.95 Vmaxpu=1.05 status=variable daily=PV68_March
New Generator.DG_68 bus1=101873.2.0 phases=1 kW=3.38 pf=1.0 kV=0.240 Basefreq=60 Model=7 Vminpu=0.95 Vmaxpu=1.05 status=variable daily=PV69_March
New Generator.DG_69 bus1=105789.2.0 phases=1 kW=5.132 pf=1.0 kV=0.240 Basefreq=60 Model=7 Vminpu=0.95 Vmaxpu=1.05 status=variable daily=PV70_March
New Generator.DG_70 bus1=104471.2.0 phases=1 kW=3.03 pf=1.0 kV=0.240 Basefreq=60 Model=7 Vminpu=0.95 Vmaxpu=1.05 status=variable daily=PV71_March
New Generator.DG_71 bus1=106625.2.0 phases=1 kW=3.9000000000000004 pf=1.0 kV=0.240 Basefreq=60 Model=7 Vminpu=0.95 Vmaxpu=1.05 status=variable daily=PV72_March
New Generator.DG_72 bus1=1043.2.0 phases=1 kW=2.18 pf=1.0 kV=0.240 Basefreq=60 Model=7 Vminpu=0.95 Vmaxpu=1.05 status=variable daily=PV73_March
New Generator.DG_73 bus1=105731.2.0 phases=1 kW=3.55 pf=1.0 kV=0.240 Basefreq=60 Model=7 Vminpu=0.95 Vmaxpu=1.05 status=variable daily=PV74_March
New Generator.DG_74 bus1=101510.2.0 phases=1 kW=3.2700000000000005 pf=1.0 kV=0.240 Basefreq=60 Model=7 Vminpu=0.95 Vmaxpu=1.05 status=variable daily=PV75_March
New Generator.DG_75 bus1=102242.2.0 phases=1 kW=4.46 pf=1.0 kV=0.240 Basefreq=60 Model=7 Vminpu=0.95 Vmaxpu=1.05 status=variable daily=PV76_March
New Generator.DG_76 bus1=106717.2.0 phases=1 kW=3.18 pf=1.0 kV=0.240 Basefreq=60 Model=7 Vminpu=0.95 Vmaxpu=1.05 status=variable daily=PV77_March
New Generator.DG_77 bus1=104063.2.0 phases=1 kW=2.54 pf=1.0 kV=0.240 Basefreq=60 Model=7 Vminpu=0.95 Vmaxpu=1.05 status=variable daily=PV78_March
New Generator.DG_78 bus1=103286.2.0 phases=1 kW=4.07 pf=1.0 kV=0.240 Basefreq=60 Model=7 Vminpu=0.95 Vmaxpu=1.05 status=variable daily=PV79_March
New Generator.DG_79 bus1=102513.2.0 phases=1 kW=3.886 pf=1.0 kV=0.240 Basefreq=60 Model=7 Vminpu=0.95 Vmaxpu=1.05 status=variable daily=PV80_March
New Generator.DG_80 bus1=103468.2.0 phases=1 kW=2.98 pf=1.0 kV=0.240 Basefreq=60 Model=7 Vminpu=0.95 Vmaxpu=1.05 status=variable daily=PV81_March
New Generator.DG_81 bus1=104433.2.0 phases=1 kW=2.07 pf=1.0 kV=0.240 Basefreq=60 Model=7 Vminpu=0.95 Vmaxpu=1.05 status=variable daily=PV82_March
New Generator.DG_82 bus1=106103.2.0 phases=1 kW=0.13 pf=1.0 kV=0.240 Basefreq=60 Model=7 Vminpu=0.95 Vmaxpu=1.05 status=variable daily=PV83_March
New Generator.DG_83 bus1=104157.2.0 phases=1 kW=1.9400000000000002 pf=1.0 kV=0.240 Basefreq=60 Model=7 Vminpu=0.95 Vmaxpu=1.05 status=variable daily=PV84_March
New Generator.DG_84 bus1=101730.2.0 phases=1 kW=3.26 pf=1.0 kV=0.240 Basefreq=60 Model=7 Vminpu=0.95 Vmaxpu=1.05 status=variable daily=PV85_March
New Generator.DG_85 bus1=102933.2.0 phases=1 kW=4.72 pf=1.0 kV=0.240 Basefreq=60 Model=7 Vminpu=0.95 Vmaxpu=1.05 status=variable daily=PV86_March
New Generator.DG_86 bus1=102990.1.0 phases=1 kW=1.23 pf=1.0 kV=0.240 Basefreq=60 Model=7 Vminpu=0.95 Vmaxpu=1.05 status=variable daily=PV87_March
New Generator.DG_87 bus1=102744.1.0 phases=1 kW=2.35 pf=1.0 kV=0.240 Basefreq=60 Model=7 Vminpu=0.95 Vmaxpu=1.05 status=variable daily=PV88_March
New Generator.DG_88 bus1=106519.1.0 phases=1 kW=3.4299999999999997 pf=1.0 kV=0.240 Basefreq=60 Model=7 Vminpu=0.95 Vmaxpu=1.05 status=variable daily=PV89_March
New Generator.DG_89 bus1=102553.1.0 phases=1 kW=2.02 pf=1.0 kV=0.240 Basefreq=60 Model=7 Vminpu=0.95 Vmaxpu=1.05 status=variable daily=PV90_March
New Generator.DG_90 bus1=101398.2.0 phases=1 kW=3.76 pf=1.0 kV=0.240 Basefreq=60 Model=7 Vminpu=0.95 Vmaxpu=1.05 status=variable daily=PV91_March
New Generator.DG_91 bus1=104938.2.0 phases=1 kW=2.8600000000000003 pf=1.0 kV=0.240 Basefreq=60 Model=7 Vminpu=0.95 Vmaxpu=1.05 status=variable daily=PV92_March
New Generator.DG_92 bus1=101054.2.0 phases=1 kW=1.56 pf=1.0 kV=0.240 Basefreq=60 Model=7 Vminpu=0.95 Vmaxpu=1.05 status=variable daily=PV93_March
New Generator.DG_93 bus1=10206.1.0 phases=1 kW=4.26 pf=1.0 kV=0.240 Basefreq=60 Model=7 Vminpu=0.95 Vmaxpu=1.05 status=variable daily=PV94_March
New Generator.DG_94 bus1=103610.1.0 phases=1 kW=2.65 pf=1.0 kV=0.240 Basefreq=60 Model=7 Vminpu=0.95 Vmaxpu=1.05 status=variable daily=PV95_March
New Generator.DG_95 bus1=105807.1.0 phases=1 kW=4.355 pf=1.0 kV=0.240 Basefreq=60 Model=7 Vminpu=0.95 Vmaxpu=1.05 status=variable daily=PV96_March
New Generator.DG_96 bus1=1098.1.0 phases=1 kW=5.37 pf=1.0 kV=0.240 Basefreq=60 Model=7 Vminpu=0.95 Vmaxpu=1.05 status=variable daily=PV97_March
New Generator.DG_97 bus1=106990.1.0 phases=1 kW=3.46 pf=1.0 kV=0.240 Basefreq=60 Model=7 Vminpu=0.95 Vmaxpu=1.05 status=variable daily=PV98_March
New Generator.DG_98 bus1=106990.1.0 phases=1 kW=2.8000000000000003 pf=1.0 kV=0.240 Basefreq=60 Model=7 Vminpu=0.95 Vmaxpu=1.05 status=variable daily=PV99_March
New Generator.DG_99 bus1=101158.1.0 phases=1 kW=2.84 pf=1.0 kV=0.240 Basefreq=60 Model=7 Vminpu=0.95 Vmaxpu=1.05 status=variable daily=PV100_March
New Generator.DG_100 bus1=102234.1.0 phases=1 kW=1.77 pf=1.0 kV=0.240 Basefreq=60 Model=7 Vminpu=0.95 Vmaxpu=1.05 status=variable daily=PV101_March
New Generator.DG_101 bus1=104073.1.0 phases=1 kW=4.805 pf=1.0 kV=0.240 Basefreq=60 Model=7 Vminpu=0.95 Vmaxpu=1.05 status=variable daily=PV102_March
New Generator.DG_102 bus1=106518.1.0 phases=1 kW=3.42 pf=1.0 kV=0.240 Basefreq=60 Model=7 Vminpu=0.95 Vmaxpu=1.05 status=variable daily=PV103_March
New Generator.DG_103 bus1=106909.1.0 phases=1 kW=4.13 pf=1.0 kV=0.240 Basefreq=60 Model=7 Vminpu=0.95 Vmaxpu=1.05 status=variable daily=PV104_March
New Generator.DG_104 bus1=106936.2.0 phases=1 kW=2.731 pf=1.0 kV=0.240 Basefreq=60 Model=7 Vminpu=0.95 Vmaxpu=1.05 status=variable daily=PV105_March
New Generator.DG_105 bus1=1089.2.0 phases=1 kW=1.27 pf=1.0 kV=0.240 Basefreq=60 Model=7 Vminpu=0.95 Vmaxpu=1.05 status=variable daily=PV106_March
New Generator.DG_106 bus1=107007.2.0 phases=1 kW=1.784 pf=1.0 kV=0.240 Basefreq=60 Model=7 Vminpu=0.95 Vmaxpu=1.05 status=variable daily=PV107_March
New Generator.DG_107 bus1=106398.2.0 phases=1 kW=3.31 pf=1.0 kV=0.240 Basefreq=60 Model=7 Vminpu=0.95 Vmaxpu=1.05 status=variable daily=PV108_March
New Generator.DG_108 bus1=102070.2.0 phases=1 kW=2.55 pf=1.0 kV=0.240 Basefreq=60 Model=7 Vminpu=0.95 Vmaxpu=1.05 status=variable daily=PV109_March
New Generator.DG_109 bus1=103011.2.0 phases=1 kW=4.277 pf=1.0 kV=0.240 Basefreq=60 Model=7 Vminpu=0.95 Vmaxpu=1.05 status=variable daily=PV110_March
New Generator.DG_110 bus1=101126.2.0 phases=1 kW=2.9399999999999995 pf=1.0 kV=0.240 Basefreq=60 Model=7 Vminpu=0.95 Vmaxpu=1.05 status=variable daily=PV111_March
New Generator.DG_111 bus1=101933.2.0 phases=1 kW=3.084 pf=1.0 kV=0.240 Basefreq=60 Model=7 Vminpu=0.95 Vmaxpu=1.05 status=variable daily=PV112_March
New Generator.DG_112 bus1=103055.2.0 phases=1 kW=2.13 pf=1.0 kV=0.240 Basefreq=60 Model=7 Vminpu=0.95 Vmaxpu=1.05 status=variable daily=PV113_March
New Generator.DG_113 bus1=104289.2.0 phases=1 kW=3.833 pf=1.0 kV=0.240 Basefreq=60 Model=7 Vminpu=0.95 Vmaxpu=1.05 status=variable daily=PV114_March
New Generator.DG_114 bus1=102459.2.0 phases=1 kW=3.344 pf=1.0 kV=0.240 Basefreq=60 Model=7 Vminpu=0.95 Vmaxpu=1.05 status=variable daily=PV115_March
New Generator.DG_115 bus1=101907.2.0 phases=1 kW=3.1599999999999997 pf=1.0 kV=0.240 Basefreq=60 Model=7 Vminpu=0.95 Vmaxpu=1.05 status=variable daily=PV116_March
New Generator.DG_116 bus1=106946.3.0 phases=1 kW=3.24 pf=1.0 kV=0.240 Basefreq=60 Model=7 Vminpu=0.95 Vmaxpu=1.05 status=variable daily=PV117_March
New Generator.DG_117 bus1=106808.3.0 phases=1 kW=1.35 pf=1.0 kV=0.240 Basefreq=60 Model=7 Vminpu=0.95 Vmaxpu=1.05 status=variable daily=PV118_March
New Generator.DG_118 bus1=102692.3.0 phases=1 kW=3.3400000000000003 pf=1.0 kV=0.240 Basefreq=60 Model=7 Vminpu=0.95 Vmaxpu=1.05 status=variable daily=PV119_March
New Generator.DG_119 bus1=102159.3.0 phases=1 kW=3.21 pf=1.0 kV=0.240 Basefreq=60 Model=7 Vminpu=0.95 Vmaxpu=1.05 status=variable daily=PV120_March
New Generator.DG_120 bus1=10446.3.0 phases=1 kW=3.3 pf=1.0 kV=0.240 Basefreq=60 Model=7 Vminpu=0.95 Vmaxpu=1.05 status=variable daily=PV121_March
New Generator.DG_121 bus1=102350.3.0 phases=1 kW=3.17 pf=1.0 kV=0.240 Basefreq=60 Model=7 Vminpu=0.95 Vmaxpu=1.05 status=variable daily=PV122_March
New Generator.DG_122 bus1=105315.3.0 phases=1 kW=3.242 pf=1.0 kV=0.240 Basefreq=60 Model=7 Vminpu=0.95 Vmaxpu=1.05 status=variable daily=PV123_March
New Generator.DG_123 bus1=105805.3.0 phases=1 kW=2.4799999999999995 pf=1.0 kV=0.240 Basefreq=60 Model=7 Vminpu=0.95 Vmaxpu=1.05 status=variable daily=PV124_March
New Generator.DG_124 bus1=107101.1.0 phases=1 kW=3.4699999999999998 pf=1.0 kV=0.240 Basefreq=60 Model=7 Vminpu=0.95 Vmaxpu=1.05 status=variable daily=PV125_March
New Generator.DG_125 bus1=10245.1.0 phases=1 kW=1.37 pf=1.0 kV=0.240 Basefreq=60 Model=7 Vminpu=0.95 Vmaxpu=1.05 status=variable daily=PV126_March
New Generator.DG_126 bus1=103144.1.0 phases=1 kW=3.9699999999999998 pf=1.0 kV=0.240 Basefreq=60 Model=7 Vminpu=0.95 Vmaxpu=1.05 status=variable daily=PV127_March
New Generator.DG_127 bus1=10199.1.0 phases=1 kW=5.1899999999999995 pf=1.0 kV=0.240 Basefreq=60 Model=7 Vminpu=0.95 Vmaxpu=1.05 status=variable daily=PV128_March
New Generator.DG_128 bus1=106988.1.0 phases=1 kW=1.13 pf=1.0 kV=0.240 Basefreq=60 Model=7 Vminpu=0.95 Vmaxpu=1.05 status=variable daily=PV129_March
New Generator.DG_129 bus1=101972.1.0 phases=1 kW=3.3500000000000005 pf=1.0 kV=0.240 Basefreq=60 Model=7 Vminpu=0.95 Vmaxpu=1.05 status=variable daily=PV130_March
New Generator.DG_130 bus1=107378.1.0 phases=1 kW=3.51 pf=1.0 kV=0.240 Basefreq=60 Model=7 Vminpu=0.95 Vmaxpu=1.05 status=variable daily=PV131_March
New Generator.DG_131 bus1=10115.1.0 phases=1 kW=1.56 pf=1.0 kV=0.240 Basefreq=60 Model=7 Vminpu=0.95 Vmaxpu=1.05 status=variable daily=PV132_March
New Generator.DG_132 bus1=105563.1.0 phases=1 kW=3.029 pf=1.0 kV=0.240 Basefreq=60 Model=7 Vminpu=0.95 Vmaxpu=1.05 status=variable daily=PV133_March
New Generator.DG_133 bus1=103145.1.0 phases=1 kW=2.47 pf=1.0 kV=0.240 Basefreq=60 Model=7 Vminpu=0.95 Vmaxpu=1.05 status=variable daily=PV134_March
New Generator.DG_134 bus1=104491.2.0 phases=1 kW=2.4699999999999998 pf=1.0 kV=0.240 Basefreq=60 Model=7 Vminpu=0.95 Vmaxpu=1.05 status=variable daily=PV135_March
New Generator.DG_135 bus1=107369.2.0 phases=1 kW=1.6799999999999997 pf=1.0 kV=0.240 Basefreq=60 Model=7 Vminpu=0.95 Vmaxpu=1.05 status=variable daily=PV136_March
New Generator.DG_136 bus1=101016.2.0 phases=1 kW=2.8600000000000003 pf=1.0 kV=0.240 Basefreq=60 Model=7 Vminpu=0.95 Vmaxpu=1.05 status=variable daily=PV137_March
New Generator.DG_137 bus1=101005.2.0 phases=1 kW=3.29 pf=1.0 kV=0.240 Basefreq=60 Model=7 Vminpu=0.95 Vmaxpu=1.05 status=variable daily=PV138_March
New Generator.DG_138 bus1=107253.2.0 phases=1 kW=3.46 pf=1.0 kV=0.240 Basefreq=60 Model=7 Vminpu=0.95 Vmaxpu=1.05 status=variable daily=PV139_March
New Generator.DG_139 bus1=102079.2.0 phases=1 kW=1.77 pf=1.0 kV=0.240 Basefreq=60 Model=7 Vminpu=0.95 Vmaxpu=1.05 status=variable daily=PV140_March
New Generator.DG_140 bus1=104502.2.0 phases=1 kW=2.86 pf=1.0 kV=0.240 Basefreq=60 Model=7 Vminpu=0.95 Vmaxpu=1.05 status=variable daily=PV141_March
New Generator.DG_141 bus1=102677.2.0 phases=1 kW=1.5399999999999998 pf=1.0 kV=0.240 Basefreq=60 Model=7 Vminpu=0.95 Vmaxpu=1.05 status=variable daily=PV142_March
New Generator.DG_142 bus1=106354.3.0 phases=1 kW=1.8299999999999998 pf=1.0 kV=0.240 Basefreq=60 Model=7 Vminpu=0.95 Vmaxpu=1.05 status=variable daily=PV143_March
New Generator.DG_143 bus1=101797.3.0 phases=1 kW=0.7899999999999999 pf=1.0 kV=0.240 Basefreq=60 Model=7 Vminpu=0.95 Vmaxpu=1.05 status=variable daily=PV144_March
New Generator.DG_144 bus1=105827.3.0 phases=1 kW=1.22 pf=1.0 kV=0.240 Basefreq=60 Model=7 Vminpu=0.95 Vmaxpu=1.05 status=variable daily=PV145_March
New Generator.DG_145 bus1=10716.3.0 phases=1 kW=2.84 pf=1.0 kV=0.240 Basefreq=60 Model=7 Vminpu=0.95 Vmaxpu=1.05 status=variable daily=PV146_March
New Generator.DG_146 bus1=106336.3.0 phases=1 kW=4.3 pf=1.0 kV=0.240 Basefreq=60 Model=7 Vminpu=0.95 Vmaxpu=1.05 status=variable daily=PV147_March
New Generator.DG_147 bus1=104148.3.0 phases=1 kW=4.93 pf=1.0 kV=0.240 Basefreq=60 Model=7 Vminpu=0.95 Vmaxpu=1.05 status=variable daily=PV148_March
New Generator.DG_148 bus1=104950.3.0 phases=1 kW=4.66 pf=1.0 kV=0.240 Basefreq=60 Model=7 Vminpu=0.95 Vmaxpu=1.05 status=variable daily=PV149_March
New Generator.DG_149 bus1=102991.3.0 phases=1 kW=2.84 pf=1.0 kV=0.240 Basefreq=60 Model=7 Vminpu=0.95 Vmaxpu=1.05 status=variable daily=PV150_March
New Generator.DG_150 bus1=101503.3.0 phases=1 kW=2.88 pf=1.0 kV=0.240 Basefreq=60 Model=7 Vminpu=0.95 Vmaxpu=1.05 status=variable daily=PV151_March
New Generator.DG_151 bus1=103218.2.0 phases=1 kW=2.06 pf=1.0 kV=0.240 Basefreq=60 Model=7 Vminpu=0.95 Vmaxpu=1.05 status=variable daily=PV152_March
New Generator.DG_152 bus1=105085.2.0 phases=1 kW=2.225 pf=1.0 kV=0.240 Basefreq=60 Model=7 Vminpu=0.95 Vmaxpu=1.05 status=variable daily=PV153_March
New Generator.DG_153 bus1=104783.2.0 phases=1 kW=1.81 pf=1.0 kV=0.240 Basefreq=60 Model=7 Vminpu=0.95 Vmaxpu=1.05 status=variable daily=PV154_March
New Generator.DG_154 bus1=105346.2.0 phases=1 kW=2.03 pf=1.0 kV=0.240 Basefreq=60 Model=7 Vminpu=0.95 Vmaxpu=1.05 status=variable daily=PV155_March
New Generator.DG_155 bus1=10792.2.0 phases=1 kW=2.06 pf=1.0 kV=0.240 Basefreq=60 Model=7 Vminpu=0.95 Vmaxpu=1.05 status=variable daily=PV156_March
New Generator.DG_156 bus1=105922.2.0 phases=1 kW=4.869999999999999 pf=1.0 kV=0.240 Basefreq=60 Model=7 Vminpu=0.95 Vmaxpu=1.05 status=variable daily=PV157_March
New Generator.DG_157 bus1=106308.2.0 phases=1 kW=1.56 pf=1.0 kV=0.240 Basefreq=60 Model=7 Vminpu=0.95 Vmaxpu=1.05 status=variable daily=PV158_March
New Generator.DG_158 bus1=101375.1.0 phases=1 kW=1.22 pf=1.0 kV=0.240 Basefreq=60 Model=7 Vminpu=0.95 Vmaxpu=1.05 status=variable daily=PV159_March
New Generator.DG_159 bus1=105881.1.0 phases=1 kW=3.06 pf=1.0 kV=0.240 Basefreq=60 Model=7 Vminpu=0.95 Vmaxpu=1.05 status=variable daily=PV160_March
New Generator.DG_160 bus1=105544.1.0 phases=1 kW=2.83 pf=1.0 kV=0.240 Basefreq=60 Model=7 Vminpu=0.95 Vmaxpu=1.05 status=variable daily=PV161_March
New Generator.DG_161 bus1=102676.1.0 phases=1 kW=2.87 pf=1.0 kV=0.240 Basefreq=60 Model=7 Vminpu=0.95 Vmaxpu=1.05 status=variable daily=PV162_March
New Generator.DG_162 bus1=10586.1.0 phases=1 kW=1.49 pf=1.0 kV=0.240 Basefreq=60 Model=7 Vminpu=0.95 Vmaxpu=1.05 status=variable daily=PV163_March
New Generator.DG_163 bus1=104576.1.0 phases=1 kW=2.77 pf=1.0 kV=0.240 Basefreq=60 Model=7 Vminpu=0.95 Vmaxpu=1.05 status=variable daily=PV164_March
New Generator.DG_164 bus1=104042.1.0 phases=1 kW=1.5399999999999998 pf=1.0 kV=0.240 Basefreq=60 Model=7 Vminpu=0.95 Vmaxpu=1.05 status=variable daily=PV165_March
New Generator.DG_165 bus1=10810.1.0 phases=1 kW=2.9499999999999997 pf=1.0 kV=0.240 Basefreq=60 Model=7 Vminpu=0.95 Vmaxpu=1.05 status=variable daily=PV166_March
New Generator.DG_166 bus1=104252.1.0 phases=1 kW=1.7899999999999998 pf=1.0 kV=0.240 Basefreq=60 Model=7 Vminpu=0.95 Vmaxpu=1.05 status=variable daily=PV167_March
New Generator.DG_167 bus1=10272.1.0 phases=1 kW=2.85 pf=1.0 kV=0.240 Basefreq=60 Model=7 Vminpu=0.95 Vmaxpu=1.05 status=variable daily=PV168_March
New Generator.DG_168 bus1=104275.1.0 phases=1 kW=4.24 pf=1.0 kV=0.240 Basefreq=60 Model=7 Vminpu=0.95 Vmaxpu=1.05 status=variable daily=PV169_March
New Generator.DG_169 bus1=104802.1.0 phases=1 kW=3.1799999999999997 pf=1.0 kV=0.240 Basefreq=60 Model=7 Vminpu=0.95 Vmaxpu=1.05 status=variable daily=PV170_March
New Generator.DG_170 bus1=107173.1.0 phases=1 kW=3.24 pf=1.0 kV=0.240 Basefreq=60 Model=7 Vminpu=0.95 Vmaxpu=1.05 status=variable daily=PV171_March
New Generator.DG_171 bus1=106643.1.0 phases=1 kW=3.9400000000000004 pf=1.0 kV=0.240 Basefreq=60 Model=7 Vminpu=0.95 Vmaxpu=1.05 status=variable daily=PV172_March
New Generator.DG_172 bus1=102949.1.0 phases=1 kW=2.73 pf=1.0 kV=0.240 Basefreq=60 Model=7 Vminpu=0.95 Vmaxpu=1.05 status=variable daily=PV173_March
New Generator.DG_173 bus1=103748.1.0 phases=1 kW=4.15 pf=1.0 kV=0.240 Basefreq=60 Model=7 Vminpu=0.95 Vmaxpu=1.05 status=variable daily=PV174_March
New Generator.DG_174 bus1=103211.1.0 phases=1 kW=2.59 pf=1.0 kV=0.240 Basefreq=60 Model=7 Vminpu=0.95 Vmaxpu=1.05 status=variable daily=PV175_March
New Generator.DG_175 bus1=10282.1.0 phases=1 kW=1.8199999999999998 pf=1.0 kV=0.240 Basefreq=60 Model=7 Vminpu=0.95 Vmaxpu=1.05 status=variable daily=PV176_March
New Generator.DG_176 bus1=10819.1.0 phases=1 kW=2.12 pf=1.0 kV=0.240 Basefreq=60 Model=7 Vminpu=0.95 Vmaxpu=1.05 status=variable daily=PV177_March
New Generator.DG_177 bus1=103754.1.0 phases=1 kW=1.6700000000000002 pf=1.0 kV=0.240 Basefreq=60 Model=7 Vminpu=0.95 Vmaxpu=1.05 status=variable daily=PV178_March
New Generator.DG_178 bus1=104284.1.0 phases=1 kW=1.88 pf=1.0 kV=0.240 Basefreq=60 Model=7 Vminpu=0.95 Vmaxpu=1.05 status=variable daily=PV179_March
New Generator.DG_179 bus1=105368.1.0 phases=1 kW=3.02 pf=1.0 kV=0.240 Basefreq=60 Model=7 Vminpu=0.95 Vmaxpu=1.05 status=variable daily=PV180_March
New Generator.DG_180 bus1=101892.1.0 phases=1 kW=1.7699999999999998 pf=1.0 kV=0.240 Basefreq=60 Model=7 Vminpu=0.95 Vmaxpu=1.05 status=variable daily=PV181_March
New Generator.DG_181 bus1=106388.1.0 phases=1 kW=1.73 pf=1.0 kV=0.240 Basefreq=60 Model=7 Vminpu=0.95 Vmaxpu=1.05 status=variable daily=PV182_March
New Generator.DG_182 bus1=103489.1.0 phases=1 kW=1.3900000000000001 pf=1.0 kV=0.240 Basefreq=60 Model=7 Vminpu=0.95 Vmaxpu=1.05 status=variable daily=PV183_March
New Generator.DG_183 bus1=106906.1.0 phases=1 kW=1.55 pf=1.0 kV=0.240 Basefreq=60 Model=7 Vminpu=0.95 Vmaxpu=1.05 status=variable daily=PV184_March
New Generator.DG_184 bus1=106920.1.0 phases=1 kW=3.9400000000000004 pf=1.0 kV=0.240 Basefreq=60 Model=7 Vminpu=0.95 Vmaxpu=1.05 status=variable daily=PV185_March
New Generator.DG_185 bus1=102943.1.0 phases=1 kW=1.56 pf=1.0 kV=0.240 Basefreq=60 Model=7 Vminpu=0.95 Vmaxpu=1.05 status=variable daily=PV186_March
New Generator.DG_186 bus1=103755.1.0 phases=1 kW=1.4000000000000001 pf=1.0 kV=0.240 Basefreq=60 Model=7 Vminpu=0.95 Vmaxpu=1.05 status=variable daily=PV187_March
New Generator.DG_187 bus1=102407.1.0 phases=1 kW=1.7199999999999998 pf=1.0 kV=0.240 Basefreq=60 Model=7 Vminpu=0.95 Vmaxpu=1.05 status=variable daily=PV188_March
New Generator.DG_188 bus1=106654.1.0 phases=1 kW=1.6199999999999999 pf=1.0 kV=0.240 Basefreq=60 Model=7 Vminpu=0.95 Vmaxpu=1.05 status=variable daily=PV189_March
New Generator.DG_189 bus1=106146.1.0 phases=1 kW=4.25 pf=1.0 kV=0.240 Basefreq=60 Model=7 Vminpu=0.95 Vmaxpu=1.05 status=variable daily=PV190_March
New Generator.DG_190 bus1=105632.1.0 phases=1 kW=1.7000000000000002 pf=1.0 kV=0.240 Basefreq=60 Model=7 Vminpu=0.95 Vmaxpu=1.05 status=variable daily=PV191_March
New Generator.DG_191 bus1=105369.1.0 phases=1 kW=1.94 pf=1.0 kV=0.240 Basefreq=60 Model=7 Vminpu=0.95 Vmaxpu=1.05 status=variable daily=PV192_March
New Generator.DG_192 bus1=102703.1.0 phases=1 kW=3.0199999999999996 pf=1.0 kV=0.240 Basefreq=60 Model=7 Vminpu=0.95 Vmaxpu=1.05 status=variable daily=PV193_March
New Generator.DG_193 bus1=10607.2.0 phases=1 kW=4.390000000000001 pf=1.0 kV=0.240 Basefreq=60 Model=7 Vminpu=0.95 Vmaxpu=1.05 status=variable daily=PV194_March
New Generator.DG_194 bus1=10599.2.0 phases=1 kW=1.64 pf=1.0 kV=0.240 Basefreq=60 Model=7 Vminpu=0.95 Vmaxpu=1.05 status=variable daily=PV195_March
New Generator.DG_195 bus1=104065.2.0 phases=1 kW=2.49 pf=1.0 kV=0.240 Basefreq=60 Model=7 Vminpu=0.95 Vmaxpu=1.05 status=variable daily=PV196_March